xflr5 v6.61

 Calculated polar for: AG14

 1 1 Reynolds number fixed          Mach number fixed         

 xtrf =   1.000 (top)        1.000 (bottom)
 Mach =   0.000     Re =     0.080 e 6     Ncrit =   9.000

  alpha     CL        CD       CDp       Cm    Top Xtr Bot Xtr   Cpmin    Chinge    XCp    
 ------- -------- --------- --------- -------- ------- ------- -------- --------- ---------
   0.000   0.1815   0.01116   0.00313  -0.0404  1.0000  1.0000  -0.3915   0.0000   0.0000   0.0000   0.4718
   0.500   0.2320   0.01144   0.00330  -0.0400  1.0000  1.0000  -0.4556   0.0000   0.0000   0.0000   0.4216
   1.000   0.2815   0.01190   0.00375  -0.0400  1.0000  1.0000  -0.5279   0.0000   0.0000   0.0000   0.3911
   1.500   0.3292   0.01271   0.00461  -0.0408  1.0000  1.0000  -0.6071   0.0000   0.0000   0.0000   0.3727
   2.000   0.4597   0.01295   0.00517  -0.0558  0.9332  1.0000  -0.7992   0.0000   0.0000   0.0000   0.3697
   2.500   0.5368   0.01285   0.00515  -0.0567  0.8348  1.0000  -0.9702   0.0000   0.0000   0.0000   0.3537
   3.000   0.5827   0.01332   0.00540  -0.0515  0.7239  1.0000  -1.1227   0.0000   0.0000   0.0000   0.3362
   3.500   0.6282   0.01421   0.00588  -0.0474  0.6131  1.0000  -1.3051   0.0000   0.0000   0.0000   0.3230
   4.000   0.6751   0.01537   0.00663  -0.0444  0.5066  1.0000  -1.5294   0.0000   0.0000   0.0000   0.3130
   4.500   0.7227   0.01678   0.00770  -0.0421  0.4074  1.0000  -1.8242   0.0000   0.0000   0.0000   0.3051
   5.000   0.7706   0.01846   0.00907  -0.0403  0.3143  1.0000  -2.2932   0.0000   0.0000   0.0000   0.2988
   5.500   0.8186   0.02054   0.01097  -0.0388  0.2353  1.0000  -2.8358   0.0000   0.0000   0.0000   0.2934
   6.000   0.8665   0.02310   0.01331  -0.0374  0.1754  1.0000  -3.3868   0.0000   0.0000   0.0000   0.2886
   6.500   0.9144   0.02624   0.01668  -0.0358  0.1282  1.0000  -3.8993   0.0000   0.0000   0.0000   0.2842
   7.000   0.9606   0.03056   0.02118  -0.0343  0.0941  1.0000  -4.3283   0.0000   0.0000   0.0000   0.2802
   7.500   1.0036   0.03586   0.02721  -0.0323  0.0712  1.0000  -4.6785   0.0000   0.0000   0.0000   0.2763
   8.000   1.0340   0.04515   0.03800  -0.0300  0.0630  1.0000  -4.7274   0.0000   0.0000   0.0000   0.2728
   8.500   1.0538   0.05424   0.04774  -0.0288  0.0564  1.0000  -4.8770   0.0000   0.0000   0.0000   0.2708
   9.000   1.0548   0.06664   0.06093  -0.0286  0.0572  1.0000  -4.7499   0.0000   0.0000   0.0000   0.2703
  10.500   0.9139   0.13347   0.12847  -0.0751  0.1500  1.0000  -2.4318   0.0000   0.0000   0.0000   0.3258
  11.000   0.9018   0.14338   0.13828  -0.0808  0.1431  1.0000  -2.3048   0.0000   0.0000   0.0000   0.3328
  11.500   0.9129   0.15299   0.14790  -0.0812  0.1335  1.0000  -2.3520   0.0000   0.0000   0.0000   0.3317
  12.000   0.9233   0.16223   0.15712  -0.0820  0.1209  1.0000  -2.3994   0.0000   0.0000   0.0000   0.3312
  12.500   0.9116   0.16954   0.16435  -0.0895  0.1129  1.0000  -2.2402   0.0000   0.0000   0.0000   0.3402
  13.000   0.9295   0.18000   0.17482  -0.0898  0.1075  1.0000  -2.3020   0.0000   0.0000   0.0000   0.3381
  13.500   0.9253   0.18644   0.18119  -0.0965  0.1000  1.0000  -2.1774   0.0000   0.0000   0.0000   0.3453
  14.000   0.9479   0.19765   0.19248  -0.0964  0.0947  1.0000  -2.2601   0.0000   0.0000   0.0000   0.3422
  14.500   0.9447   0.20259   0.19735  -0.1040  0.0880  1.0000  -2.1142   0.0000   0.0000   0.0000   0.3501
  15.000   0.9657   0.21304   0.20782  -0.1044  0.0817  1.0000  -2.1994   0.0000   0.0000   0.0000   0.3476
  15.500   0.9692   0.21815   0.21287  -0.1118  0.0761  1.0000  -2.0674   0.0000   0.0000   0.0000   0.3543
  16.000   0.9917   0.22793   0.22271  -0.1120  0.0706  1.0000  -2.1698   0.0000   0.0000   0.0000   0.3513
  16.500   1.0025   0.23605   0.23077  -0.1171  0.0689  1.0000  -2.0883   0.0000   0.0000   0.0000   0.3546
  17.000   1.0118   0.24106   0.23574  -0.1243  0.0643  1.0000  -1.9670   0.0000   0.0000   0.0000   0.3600
  17.500   1.0288   0.24861   0.24331  -0.1274  0.0598  1.0000  -1.9789   0.0000   0.0000   0.0000   0.3604
  18.000   1.0544   0.26392   0.25865  -0.1268  0.0571  1.0000  -2.0861   0.0000   0.0000   0.0000   0.3562
  18.500   1.0594   0.26404   0.25871  -0.1364  0.0557  1.0000  -1.9001   0.0000   0.0000   0.0000   0.3639
  19.000   1.0747   0.27019   0.26491  -0.1419  0.0510  1.0000  -1.8640   0.0000   0.0000   0.0000   0.3665
  19.500   1.0928   0.27811   0.27288  -0.1443  0.0467  1.0000  -2.0017   0.0000   0.0000   0.0000   0.3658
  20.000   1.1132   0.29195   0.28672  -0.1458  0.0451  1.0000  -2.1327   0.0000   0.0000   0.0000   0.3640


