xflr5 v6.61

 Calculated polar for: AG14

 1 1 Reynolds number fixed          Mach number fixed         

 xtrf =   1.000 (top)        1.000 (bottom)
 Mach =   0.000     Re =     0.130 e 6     Ncrit =   9.000

  alpha     CL        CD       CDp       Cm    Top Xtr Bot Xtr   Cpmin    Chinge    XCp    
 ------- -------- --------- --------- -------- ------- ------- -------- --------- ---------
   0.000   0.1894   0.00885   0.00259  -0.0415  1.0000  1.0000  -0.3971   0.0000   0.0000   0.0000   0.4684
   0.500   0.2411   0.00914   0.00279  -0.0414  1.0000  1.0000  -0.4635   0.0000   0.0000   0.0000   0.4207
   1.000   0.3139   0.00950   0.00315  -0.0458  0.9851  1.0000  -0.5576   0.0000   0.0000   0.0000   0.3950
   1.500   0.4143   0.00945   0.00317  -0.0542  0.9274  1.0000  -0.7033   0.0000   0.0000   0.0000   0.3794
   2.000   0.4777   0.00950   0.00314  -0.0536  0.8358  1.0000  -0.8372   0.0000   0.0000   0.0000   0.3605
   2.500   0.5251   0.00994   0.00324  -0.0499  0.7296  1.0000  -0.9705   0.0000   0.0000   0.0000   0.3431
   3.000   0.5728   0.01067   0.00357  -0.0470  0.6223  1.0000  -1.1252   0.0000   0.0000   0.0000   0.3298
   3.500   0.6219   0.01155   0.00402  -0.0450  0.5204  1.0000  -1.3154   0.0000   0.0000   0.0000   0.3198
   4.000   0.6718   0.01253   0.00464  -0.0435  0.4261  1.0000  -1.5517   0.0000   0.0000   0.0000   0.3119
   4.500   0.7217   0.01366   0.00549  -0.0424  0.3382  1.0000  -1.8761   0.0000   0.0000   0.0000   0.3054
   5.000   0.7715   0.01499   0.00653  -0.0414  0.2555  1.0000  -2.3992   0.0000   0.0000   0.0000   0.2999
   5.500   0.8209   0.01663   0.00801  -0.0404  0.1852  1.0000  -2.9777   0.0000   0.0000   0.0000   0.2951
   6.000   0.8695   0.01865   0.00989  -0.0393  0.1329  1.0000  -3.5731   0.0000   0.0000   0.0000   0.2906
   6.500   0.9173   0.02110   0.01238  -0.0381  0.0931  1.0000  -4.1514   0.0000   0.0000   0.0000   0.2865
   7.000   0.9642   0.02398   0.01554  -0.0367  0.0619  1.0000  -4.6610   0.0000   0.0000   0.0000   0.2824
   7.500   1.0080   0.02852   0.02042  -0.0349  0.0434  1.0000  -5.1550   0.0000   0.0000   0.0000   0.2785
   8.000   1.0491   0.03429   0.02690  -0.0328  0.0356  1.0000  -5.5000   0.0000   0.0000   0.0000   0.2747
   8.500   1.0747   0.04267   0.03656  -0.0304  0.0310  1.0000  -5.6041   0.0000   0.0000   0.0000   0.2714
   9.000   1.0788   0.05386   0.04892  -0.0288  0.0309  1.0000  -5.4440   0.0000   0.0000   0.0000   0.2694
   9.500   1.0590   0.06564   0.06144  -0.0294  0.0319  1.0000  -5.2031   0.0000   0.0000   0.0000   0.2703
  10.000   1.0219   0.07712   0.07326  -0.0348  0.0326  1.0000  -4.9538   0.0000   0.0000   0.0000   0.2761
  10.500   0.9887   0.09358   0.08981  -0.0480  0.0336  1.0000  -4.6053   0.0000   0.0000   0.0000   0.2902
  12.500   0.9244   0.16482   0.16081  -0.0846  0.0686  1.0000  -2.5051   0.0000   0.0000   0.0000   0.3331
  13.000   0.9214   0.17387   0.16976  -0.0918  0.0627  1.0000  -2.3432   0.0000   0.0000   0.0000   0.3409
  13.500   0.9403   0.18190   0.17788  -0.0914  0.0585  1.0000  -2.4800   0.0000   0.0000   0.0000   0.3379
  14.000   0.9515   0.19297   0.18892  -0.0934  0.0570  1.0000  -2.4721   0.0000   0.0000   0.0000   0.3383
  14.500   0.9471   0.19987   0.19574  -0.1037  0.0539  1.0000  -2.1985   0.0000   0.0000   0.0000   0.3493
  15.000   0.9589   0.20779   0.20365  -0.1078  0.0497  1.0000  -2.1647   0.0000   0.0000   0.0000   0.3517
  15.500   0.9801   0.21636   0.21226  -0.1076  0.0463  1.0000  -2.3066   0.0000   0.0000   0.0000   0.3484
  16.000   0.9948   0.22757   0.22345  -0.1107  0.0450  1.0000  -2.2555   0.0000   0.0000   0.0000   0.3494
  16.500   0.9985   0.23202   0.22783  -0.1204  0.0426  1.0000  -2.0145   0.0000   0.0000   0.0000   0.3582
  17.000   1.0135   0.23924   0.23505  -0.1248  0.0377  1.0000  -1.9924   0.0000   0.0000   0.0000   0.3601
  17.500   1.0353   0.24870   0.24457  -0.1241  0.0346  1.0000  -2.1871   0.0000   0.0000   0.0000   0.3561
  18.000   1.0522   0.26032   0.25621  -0.1275  0.0338  1.0000  -2.1513   0.0000   0.0000   0.0000   0.3568
  18.500   1.0609   0.26382   0.25967  -0.1357  0.0333  1.0000  -2.0224   0.0000   0.0000   0.0000   0.3629
  19.000   1.0757   0.26947   0.26529  -0.1429  0.0312  1.0000  -1.9447   0.0000   0.0000   0.0000   0.3672
  19.500   1.0920   0.27652   0.27236  -0.1477  0.0288  1.0000  -1.9747   0.0000   0.0000   0.0000   0.3689
  20.000   1.1084   0.28340   0.27925  -0.1520  0.0269  1.0000  -2.0358   0.0000   0.0000   0.0000   0.3700


