xflr5 v6.61

 Calculated polar for: AG14

 1 1 Reynolds number fixed          Mach number fixed         

 xtrf =   1.000 (top)        1.000 (bottom)
 Mach =   0.000     Re =     0.002 e 6     Ncrit =   9.000

  alpha     CL        CD       CDp       Cm    Top Xtr Bot Xtr   Cpmin    Chinge    XCp    
 ------- -------- --------- --------- -------- ------- ------- -------- --------- ---------
   0.000   0.1057   0.07194   0.01577  -0.0323  1.0000  1.0000  -0.4193   0.0000   0.0000   0.0000   0.5551
   0.500   0.1510   0.07214   0.01513  -0.0320  1.0000  1.0000  -0.3862   0.0000   0.0000   0.0000   0.4612
   1.000   0.1946   0.07248   0.01510  -0.0315  1.0000  1.0000  -0.4367   0.0000   0.0000   0.0000   0.4112
   1.500   0.2363   0.07297   0.01559  -0.0310  1.0000  1.0000  -0.4914   0.0000   0.0000   0.0000   0.3801
   2.000   0.2770   0.07378   0.01658  -0.0306  1.0000  1.0000  -0.5515   0.0000   0.0000   0.0000   0.3589
   2.500   0.3161   0.07483   0.01810  -0.0302  1.0000  1.0000  -0.6164   0.0000   0.0000   0.0000   0.3437
   3.000   0.3530   0.07615   0.02013  -0.0298  1.0000  1.0000  -0.6850   0.0000   0.0000   0.0000   0.3325
   3.500   0.3878   0.07779   0.02277  -0.0297  1.0000  1.0000  -0.7575   0.0000   0.0000   0.0000   0.3242
   4.000   0.4201   0.07981   0.02580  -0.0297  1.0000  1.0000  -0.8343   0.0000   0.0000   0.0000   0.3181
   4.500   0.4496   0.08228   0.02936  -0.0300  1.0000  1.0000  -0.9079   0.0000   0.0000   0.0000   0.3138
   5.000   0.4768   0.08531   0.03372  -0.0306  1.0000  1.0000  -0.9888   0.0000   0.0000   0.0000   0.3111
   5.500   0.5009   0.08889   0.03834  -0.0318  1.0000  1.0000  -1.0611   0.0000   0.0000   0.0000   0.3101
   6.000   0.5223   0.09303   0.04347  -0.0335  1.0000  1.0000  -1.1372   0.0000   0.0000   0.0000   0.3103
   6.500   0.5413   0.09770   0.04907  -0.0357  1.0000  1.0000  -1.2048   0.0000   0.0000   0.0000   0.3117
   7.000   0.5586   0.10288   0.05510  -0.0383  1.0000  1.0000  -1.2706   0.0000   0.0000   0.0000   0.3140
   7.500   0.5745   0.10849   0.06150  -0.0413  1.0000  1.0000  -1.3345   0.0000   0.0000   0.0000   0.3170
   8.000   0.5897   0.11446   0.06854  -0.0446  1.0000  1.0000  -1.3893   0.0000   0.0000   0.0000   0.3204
   8.500   0.6042   0.12071   0.07549  -0.0481  1.0000  1.0000  -1.4512   0.0000   0.0000   0.0000   0.3240
   9.000   0.6185   0.12720   0.08264  -0.0519  1.0000  1.0000  -1.5042   0.0000   0.0000   0.0000   0.3278
   9.500   0.6329   0.13388   0.08994  -0.0557  1.0000  1.0000  -1.5551   0.0000   0.0000   0.0000   0.3316
  10.000   0.6476   0.14071   0.09736  -0.0597  1.0000  1.0000  -1.6112   0.0000   0.0000   0.0000   0.3353
  10.500   0.6626   0.14763   0.10485  -0.0637  1.0000  1.0000  -1.6605   0.0000   0.0000   0.0000   0.3389
  11.000   0.6780   0.15466   0.11275  -0.0678  1.0000  1.0000  -1.7078   0.0000   0.0000   0.0000   0.3423
  11.500   0.6939   0.16171   0.12030  -0.0719  1.0000  1.0000  -1.7630   0.0000   0.0000   0.0000   0.3456
  12.000   0.7102   0.16880   0.12787  -0.0761  1.0000  1.0000  -1.8124   0.0000   0.0000   0.0000   0.3486
  12.500   0.7270   0.17593   0.13545  -0.0804  1.0000  1.0000  -1.8560   0.0000   0.0000   0.0000   0.3515
  13.000   0.7443   0.18308   0.14304  -0.0847  1.0000  1.0000  -1.8940   0.0000   0.0000   0.0000   0.3543
  13.500   0.7619   0.19026   0.15064  -0.0890  1.0000  1.0000  -1.9265   0.0000   0.0000   0.0000   0.3568
  14.000   0.7799   0.19746   0.15825  -0.0933  1.0000  1.0000  -1.9558   0.0000   0.0000   0.0000   0.3592
  14.500   0.7982   0.20468   0.16586  -0.0977  1.0000  1.0000  -1.9993   0.0000   0.0000   0.0000   0.3614
  15.000   0.8168   0.21197   0.17388  -0.1022  1.0000  1.0000  -2.0392   0.0000   0.0000   0.0000   0.3635
  15.500   0.8355   0.21928   0.18154  -0.1066  1.0000  1.0000  -2.0721   0.0000   0.0000   0.0000   0.3655
  16.000   0.8544   0.22661   0.18922  -0.1111  1.0000  1.0000  -2.0996   0.0000   0.0000   0.0000   0.3673
  16.500   0.8735   0.23398   0.19691  -0.1156  1.0000  1.0000  -2.1222   0.0000   0.0000   0.0000   0.3691
  17.000   0.8926   0.24138   0.20463  -0.1202  1.0000  1.0000  -2.1400   0.0000   0.0000   0.0000   0.3707
  17.500   0.9118   0.24881   0.21238  -0.1248  1.0000  1.0000  -2.1533   0.0000   0.0000   0.0000   0.3723
  18.000   0.9311   0.25628   0.22016  -0.1294  1.0000  1.0000  -2.1623   0.0000   0.0000   0.0000   0.3738
  18.500   0.9503   0.26378   0.22796  -0.1341  1.0000  1.0000  -2.1674   0.0000   0.0000   0.0000   0.3752
  19.000   0.9694   0.27130   0.23577  -0.1388  1.0000  1.0000  -2.1688   0.0000   0.0000   0.0000   0.3765
  19.500   0.9886   0.27890   0.24406  -0.1435  1.0000  1.0000  -2.1654   0.0000   0.0000   0.0000   0.3778
  20.000   1.0076   0.28648   0.25194  -0.1482  1.0000  1.0000  -2.1838   0.0000   0.0000   0.0000   0.3790


