xflr5 v6.61

 Calculated polar for: AG14

 1 1 Reynolds number fixed          Mach number fixed         

 xtrf =   1.000 (top)        1.000 (bottom)
 Mach =   0.000     Re =     0.201 e 6     Ncrit =   9.000

  alpha     CL        CD       CDp       Cm    Top Xtr Bot Xtr   Cpmin    Chinge    XCp    
 ------- -------- --------- --------- -------- ------- ------- -------- --------- ---------
   0.000   0.1963   0.00722   0.00220  -0.0425  1.0000  1.0000  -0.4020   0.0000   0.0000   0.0000   0.4660
   0.100   0.2069   0.00726   0.00222  -0.0425  1.0000  1.0000  -0.4153   0.0000   0.0000   0.0000   0.4548
   0.200   0.2175   0.00732   0.00226  -0.0425  1.0000  1.0000  -0.4287   0.0000   0.0000   0.0000   0.4448
   0.300   0.2379   0.00734   0.00226  -0.0445  0.9942  1.0000  -0.4492   0.0000   0.0000   0.0000   0.4363
   0.400   0.2574   0.00735   0.00226  -0.0463  0.9867  1.0000  -0.4708   0.0000   0.0000   0.0000   0.4290
   0.500   0.2775   0.00735   0.00225  -0.0481  0.9802  1.0000  -0.4932   0.0000   0.0000   0.0000   0.4225
   0.600   0.2958   0.00735   0.00224  -0.0495  0.9715  1.0000  -0.5149   0.0000   0.0000   0.0000   0.4166
   0.700   0.3131   0.00734   0.00222  -0.0507  0.9617  1.0000  -0.5374   0.0000   0.0000   0.0000   0.4110
   0.800   0.3303   0.00733   0.00220  -0.0518  0.9516  1.0000  -0.5600   0.0000   0.0000   0.0000   0.4059
   0.900   0.3467   0.00732   0.00218  -0.0527  0.9404  1.0000  -0.5831   0.0000   0.0000   0.0000   0.4011
   1.000   0.3618   0.00731   0.00215  -0.0533  0.9272  1.0000  -0.6065   0.0000   0.0000   0.0000   0.3963
   1.100   0.3755   0.00731   0.00213  -0.0536  0.9123  1.0000  -0.6287   0.0000   0.0000   0.0000   0.3915
   1.200   0.3880   0.00731   0.00211  -0.0535  0.8957  1.0000  -0.6500   0.0000   0.0000   0.0000   0.3868
   1.300   0.3995   0.00733   0.00209  -0.0533  0.8782  1.0000  -0.6723   0.0000   0.0000   0.0000   0.3821
   1.400   0.4102   0.00736   0.00207  -0.0528  0.8601  1.0000  -0.6945   0.0000   0.0000   0.0000   0.3775
   1.500   0.4201   0.00741   0.00206  -0.0522  0.8406  1.0000  -0.7162   0.0000   0.0000   0.0000   0.3730
   1.600   0.4298   0.00748   0.00206  -0.0516  0.8211  1.0000  -0.7376   0.0000   0.0000   0.0000   0.3687
   1.800   0.4490   0.00765   0.00209  -0.0504  0.7806  1.0000  -0.7827   0.0000   0.0000   0.0000   0.3607
   1.900   0.4586   0.00775   0.00211  -0.0498  0.7603  1.0000  -0.8077   0.0000   0.0000   0.0000   0.3571
   2.000   0.4683   0.00786   0.00213  -0.0493  0.7395  1.0000  -0.8329   0.0000   0.0000   0.0000   0.3536
   2.100   0.4781   0.00797   0.00215  -0.0488  0.7189  1.0000  -0.8583   0.0000   0.0000   0.0000   0.3504
   2.200   0.4879   0.00809   0.00218  -0.0483  0.6981  1.0000  -0.8840   0.0000   0.0000   0.0000   0.3474
   2.300   0.4978   0.00822   0.00221  -0.0479  0.6775  1.0000  -0.9099   0.0000   0.0000   0.0000   0.3445
   2.400   0.5078   0.00835   0.00225  -0.0475  0.6568  1.0000  -0.9373   0.0000   0.0000   0.0000   0.3418
   2.500   0.5178   0.00848   0.00230  -0.0472  0.6366  1.0000  -0.9683   0.0000   0.0000   0.0000   0.3392
   2.600   0.5279   0.00862   0.00235  -0.0468  0.6161  1.0000  -0.9996   0.0000   0.0000   0.0000   0.3368
   2.700   0.5380   0.00877   0.00240  -0.0465  0.5963  1.0000  -1.0312   0.0000   0.0000   0.0000   0.3345
   2.800   0.5482   0.00891   0.00246  -0.0462  0.5765  1.0000  -1.0631   0.0000   0.0000   0.0000   0.3323
   3.000   0.5686   0.00920   0.00263  -0.0457  0.5378  1.0000  -1.1277   0.0000   0.0000   0.0000   0.3282
   3.100   0.5788   0.00935   0.00270  -0.0455  0.5192  1.0000  -1.1623   0.0000   0.0000   0.0000   0.3263
   3.200   0.5891   0.00951   0.00278  -0.0453  0.5012  1.0000  -1.2020   0.0000   0.0000   0.0000   0.3245
   3.300   0.5994   0.00966   0.00286  -0.0451  0.4827  1.0000  -1.2423   0.0000   0.0000   0.0000   0.3228
   3.400   0.6097   0.00982   0.00295  -0.0449  0.4648  1.0000  -1.2828   0.0000   0.0000   0.0000   0.3212
   3.500   0.6200   0.00998   0.00304  -0.0447  0.4478  1.0000  -1.3236   0.0000   0.0000   0.0000   0.3196
   3.600   0.6304   0.01013   0.00314  -0.0445  0.4304  1.0000  -1.3650   0.0000   0.0000   0.0000   0.3180
   3.700   0.6408   0.01029   0.00324  -0.0444  0.4133  1.0000  -1.4137   0.0000   0.0000   0.0000   0.3166
   3.800   0.6512   0.01046   0.00334  -0.0442  0.3965  1.0000  -1.4647   0.0000   0.0000   0.0000   0.3152
   3.900   0.6615   0.01063   0.00345  -0.0441  0.3803  1.0000  -1.5162   0.0000   0.0000   0.0000   0.3138
   4.000   0.6719   0.01080   0.00357  -0.0439  0.3641  1.0000  -1.5682   0.0000   0.0000   0.0000   0.3125
   4.100   0.6823   0.01097   0.00369  -0.0438  0.3476  1.0000  -1.6234   0.0000   0.0000   0.0000   0.3112
   4.200   0.6927   0.01114   0.00386  -0.0437  0.3316  1.0000  -1.6872   0.0000   0.0000   0.0000   0.3100
   4.300   0.7030   0.01132   0.00399  -0.0435  0.3160  1.0000  -1.7517   0.0000   0.0000   0.0000   0.3088
   4.400   0.7134   0.01151   0.00413  -0.0434  0.3006  1.0000  -1.8207   0.0000   0.0000   0.0000   0.3076
   4.500   0.7237   0.01171   0.00427  -0.0433  0.2853  1.0000  -1.9144   0.0000   0.0000   0.0000   0.3065
   4.600   0.7339   0.01192   0.00442  -0.0432  0.2700  1.0000  -2.0095   0.0000   0.0000   0.0000   0.3054
   4.700   0.7442   0.01213   0.00458  -0.0430  0.2548  1.0000  -2.1223   0.0000   0.0000   0.0000   0.3044
   4.800   0.7545   0.01234   0.00475  -0.0429  0.2401  1.0000  -2.2395   0.0000   0.0000   0.0000   0.3033
   4.900   0.7648   0.01256   0.00493  -0.0428  0.2261  1.0000  -2.3581   0.0000   0.0000   0.0000   0.3023
   5.000   0.7751   0.01279   0.00512  -0.0427  0.2123  1.0000  -2.4781   0.0000   0.0000   0.0000   0.3013
   5.100   0.7853   0.01303   0.00532  -0.0426  0.1986  1.0000  -2.5996   0.0000   0.0000   0.0000   0.3004
   5.200   0.7954   0.01328   0.00553  -0.0424  0.1854  1.0000  -2.7226   0.0000   0.0000   0.0000   0.2994
   5.300   0.8055   0.01355   0.00574  -0.0423  0.1729  1.0000  -2.8466   0.0000   0.0000   0.0000   0.2985
   5.500   0.8258   0.01410   0.00627  -0.0420  0.1503  1.0000  -3.0880   0.0000   0.0000   0.0000   0.2967
   5.600   0.8359   0.01437   0.00654  -0.0419  0.1399  1.0000  -3.2140   0.0000   0.0000   0.0000   0.2958
   5.700   0.8459   0.01469   0.00682  -0.0417  0.1301  1.0000  -3.3409   0.0000   0.0000   0.0000   0.2950
   5.800   0.8556   0.01505   0.00711  -0.0416  0.1210  1.0000  -3.4687   0.0000   0.0000   0.0000   0.2941
   5.900   0.8659   0.01527   0.00738  -0.0414  0.1121  1.0000  -3.6004   0.0000   0.0000   0.0000   0.2933
   6.000   0.8757   0.01565   0.00774  -0.0412  0.1045  1.0000  -3.7262   0.0000   0.0000   0.0000   0.2924
   6.100   0.8855   0.01600   0.00806  -0.0411  0.0970  1.0000  -3.8559   0.0000   0.0000   0.0000   0.2916
   6.200   0.8955   0.01632   0.00843  -0.0409  0.0896  1.0000  -3.9837   0.0000   0.0000   0.0000   0.2908
   6.300   0.9046   0.01683   0.00885  -0.0407  0.0824  1.0000  -4.1095   0.0000   0.0000   0.0000   0.2900
   6.400   0.9152   0.01702   0.00914  -0.0405  0.0757  1.0000  -4.2414   0.0000   0.0000   0.0000   0.2892
   6.500   0.9238   0.01770   0.00973  -0.0402  0.0696  1.0000  -4.3551   0.0000   0.0000   0.0000   0.2884
   6.600   0.9343   0.01790   0.01005  -0.0400  0.0638  1.0000  -4.4811   0.0000   0.0000   0.0000   0.2876
   6.700   0.9429   0.01855   0.01063  -0.0398  0.0576  1.0000  -4.5966   0.0000   0.0000   0.0000   0.2869
   6.800   0.9533   0.01880   0.01099  -0.0396  0.0524  1.0000  -4.7186   0.0000   0.0000   0.0000   0.2860
   6.900   0.9626   0.01926   0.01149  -0.0393  0.0477  1.0000  -4.8555   0.0000   0.0000   0.0000   0.2853
   7.000   0.9712   0.02005   0.01232  -0.0389  0.0434  1.0000  -4.9662   0.0000   0.0000   0.0000   0.2844
   7.100   0.9813   0.02028   0.01262  -0.0388  0.0388  1.0000  -5.1184   0.0000   0.0000   0.0000   0.2837
   7.200   0.9895   0.02105   0.01336  -0.0385  0.0352  1.0000  -5.2431   0.0000   0.0000   0.0000   0.2830
   7.300   0.9977   0.02213   0.01452  -0.0379  0.0329  1.0000  -5.3184   0.0000   0.0000   0.0000   0.2820
   7.400   1.0071   0.02278   0.01529  -0.0375  0.0308  1.0000  -5.4175   0.0000   0.0000   0.0000   0.2811
   7.500   1.0163   0.02342   0.01602  -0.0371  0.0287  1.0000  -5.5256   0.0000   0.0000   0.0000   0.2803
   7.600   1.0254   0.02386   0.01648  -0.0369  0.0266  1.0000  -5.6697   0.0000   0.0000   0.0000   0.2797
   7.700   1.0325   0.02503   0.01767  -0.0366  0.0245  1.0000  -5.7723   0.0000   0.0000   0.0000   0.2790
   7.800   1.0397   0.02648   0.01928  -0.0361  0.0232  1.0000  -5.8282   0.0000   0.0000   0.0000   0.2782
   7.900   1.0487   0.02721   0.02016  -0.0356  0.0225  1.0000  -5.9225   0.0000   0.0000   0.0000   0.2774
   8.000   1.0571   0.02821   0.02132  -0.0352  0.0218  1.0000  -5.9954   0.0000   0.0000   0.0000   0.2765
   8.100   1.0650   0.02934   0.02262  -0.0347  0.0212  1.0000  -6.0580   0.0000   0.0000   0.0000   0.2757
   8.200   1.0725   0.03058   0.02404  -0.0342  0.0207  1.0000  -6.1116   0.0000   0.0000   0.0000   0.2749
   8.300   1.0795   0.03193   0.02558  -0.0336  0.0203  1.0000  -6.1560   0.0000   0.0000   0.0000   0.2742
   8.400   1.0860   0.03339   0.02725  -0.0331  0.0200  1.0000  -6.1901   0.0000   0.0000   0.0000   0.2734
   8.500   1.0917   0.03499   0.02906  -0.0326  0.0198  1.0000  -6.2120   0.0000   0.0000   0.0000   0.2727
   8.600   1.0966   0.03673   0.03104  -0.0320  0.0197  1.0000  -6.2198   0.0000   0.0000   0.0000   0.2719
   8.700   1.1005   0.03864   0.03319  -0.0315  0.0197  1.0000  -6.2119   0.0000   0.0000   0.0000   0.2713
   8.800   1.1032   0.04070   0.03550  -0.0309  0.0197  1.0000  -6.1884   0.0000   0.0000   0.0000   0.2706
   8.900   1.1048   0.04292   0.03797  -0.0304  0.0198  1.0000  -6.1506   0.0000   0.0000   0.0000   0.2701
   9.000   1.1051   0.04526   0.04056  -0.0299  0.0200  1.0000  -6.1016   0.0000   0.0000   0.0000   0.2696
   9.100   1.1042   0.04767   0.04320  -0.0295  0.0202  1.0000  -6.0453   0.0000   0.0000   0.0000   0.2692
   9.200   1.1023   0.05012   0.04586  -0.0292  0.0204  1.0000  -5.9850   0.0000   0.0000   0.0000   0.2689
   9.300   1.0992   0.05257   0.04850  -0.0290  0.0206  1.0000  -5.9235   0.0000   0.0000   0.0000   0.2687
   9.400   1.0952   0.05499   0.05108  -0.0289  0.0208  1.0000  -5.8626   0.0000   0.0000   0.0000   0.2687
   9.500   1.0902   0.05736   0.05361  -0.0289  0.0210  1.0000  -5.8033   0.0000   0.0000   0.0000   0.2687
   9.600   1.0845   0.05968   0.05605  -0.0291  0.0212  1.0000  -5.7458   0.0000   0.0000   0.0000   0.2690
   9.700   1.0779   0.06193   0.05842  -0.0294  0.0213  1.0000  -5.6903   0.0000   0.0000   0.0000   0.2693
   9.800   1.0702   0.06392   0.06050  -0.0296  0.0214  1.0000  -5.6409   0.0000   0.0000   0.0000   0.2696
   9.900   1.0621   0.06599   0.06265  -0.0302  0.0215  1.0000  -5.5915   0.0000   0.0000   0.0000   0.2704
  10.000   1.0540   0.06829   0.06502  -0.0317  0.0216  1.0000  -5.5390   0.0000   0.0000   0.0000   0.2718
  10.100   1.0460   0.07094   0.06774  -0.0339  0.0216  1.0000  -5.4800   0.0000   0.0000   0.0000   0.2741
  10.200   1.0382   0.07405   0.07092  -0.0370  0.0217  1.0000  -5.4106   0.0000   0.0000   0.0000   0.2772
  10.300   1.0304   0.07772   0.07464  -0.0408  0.0217  1.0000  -5.3263   0.0000   0.0000   0.0000   0.2811
  10.400   1.0225   0.08196   0.07893  -0.0450  0.0218  1.0000  -5.2222   0.0000   0.0000   0.0000   0.2854
  10.500   1.0142   0.08667   0.08367  -0.0492  0.0219  1.0000  -5.0961   0.0000   0.0000   0.0000   0.2900
  10.600   1.0057   0.09159   0.08861  -0.0531  0.0221  1.0000  -4.9525   0.0000   0.0000   0.0000   0.2943
  10.700   0.9972   0.09636   0.09339  -0.0564  0.0223  1.0000  -4.8045   0.0000   0.0000   0.0000   0.2980
  10.800   0.9891   0.10081   0.09781  -0.0590  0.0226  1.0000  -4.6634   0.0000   0.0000   0.0000   0.3011
  10.900   0.9819   0.10483   0.10182  -0.0612  0.0228  1.0000  -4.5371   0.0000   0.0000   0.0000   0.3037
  11.000   0.9753   0.10844   0.10541  -0.0629  0.0231  1.0000  -4.4302   0.0000   0.0000   0.0000   0.3059
  11.100   0.9693   0.11167   0.10862  -0.0644  0.0233  1.0000  -4.3420   0.0000   0.0000   0.0000   0.3078
  15.200   0.7228   0.18099   0.17791  -0.0737  0.0382  1.0000  -1.7058   0.0000   0.0000   0.0000   0.3427
  15.300   0.7238   0.18212   0.17904  -0.0740  0.0376  1.0000  -1.7056   0.0000   0.0000   0.0000   0.3429
  15.400   0.7250   0.18324   0.18016  -0.0743  0.0371  1.0000  -1.7099   0.0000   0.0000   0.0000   0.3430
  15.500   0.7265   0.18438   0.18131  -0.0745  0.0366  1.0000  -1.7192   0.0000   0.0000   0.0000   0.3430
  15.600   0.7284   0.18549   0.18242  -0.0746  0.0361  1.0000  -1.7350   0.0000   0.0000   0.0000   0.3427
  15.700   0.7310   0.18663   0.18358  -0.0746  0.0356  1.0000  -1.7608   0.0000   0.0000   0.0000   0.3422
  15.800   0.7353   0.18797   0.18492  -0.0742  0.0351  1.0000  -1.8075   0.0000   0.0000   0.0000   0.3409
  15.900   0.7444   0.19265   0.18959  -0.0725  0.0340  1.0000  -1.8913   0.0000   0.0000   0.0000   0.3372
  16.000   0.7444   0.19389   0.19084  -0.0731  0.0340  1.0000  -1.8639   0.0000   0.0000   0.0000   0.3380
  16.100   0.7442   0.19508   0.19202  -0.0738  0.0339  1.0000  -1.8359   0.0000   0.0000   0.0000   0.3388
  16.200   0.7440   0.19620   0.19314  -0.0745  0.0339  1.0000  -1.8063   0.0000   0.0000   0.0000   0.3397
  16.300   0.7430   0.19722   0.19417  -0.0753  0.0338  1.0000  -1.7696   0.0000   0.0000   0.0000   0.3408
  16.400   0.7418   0.19818   0.19512  -0.0761  0.0337  1.0000  -1.7311   0.0000   0.0000   0.0000   0.3421
  16.500   0.7401   0.19900   0.19594  -0.0770  0.0336  1.0000  -1.6878   0.0000   0.0000   0.0000   0.3435
  16.600   0.7379   0.19977   0.19670  -0.0781  0.0334  1.0000  -1.6403   0.0000   0.0000   0.0000   0.3452
  16.700   0.7360   0.20056   0.19749  -0.0792  0.0331  1.0000  -1.5888   0.0000   0.0000   0.0000   0.3469
  16.800   0.7345   0.20147   0.19839  -0.0803  0.0326  1.0000  -1.5348   0.0000   0.0000   0.0000   0.3487
  16.900   0.7341   0.20260   0.19952  -0.0813  0.0318  1.0000  -1.4916   0.0000   0.0000   0.0000   0.3500
  17.000   0.7345   0.20382   0.20075  -0.0819  0.0308  1.0000  -1.4665   0.0000   0.0000   0.0000   0.3507
  17.100   0.7354   0.20506   0.20198  -0.0825  0.0299  1.0000  -1.4512   0.0000   0.0000   0.0000   0.3513
  17.200   0.7363   0.20625   0.20318  -0.0830  0.0292  1.0000  -1.4404   0.0000   0.0000   0.0000   0.3517
  17.300   0.7373   0.20750   0.20443  -0.0834  0.0286  1.0000  -1.4316   0.0000   0.0000   0.0000   0.3520
  17.400   0.7384   0.20870   0.20564  -0.0838  0.0281  1.0000  -1.4245   0.0000   0.0000   0.0000   0.3523
  17.500   0.7396   0.20990   0.20684  -0.0842  0.0276  1.0000  -1.4194   0.0000   0.0000   0.0000   0.3526
  17.600   0.7408   0.21109   0.20803  -0.0846  0.0271  1.0000  -1.4166   0.0000   0.0000   0.0000   0.3528
  17.700   0.7421   0.21226   0.20921  -0.0850  0.0267  1.0000  -1.4163   0.0000   0.0000   0.0000   0.3530
  17.800   0.7435   0.21342   0.21037  -0.0854  0.0263  1.0000  -1.4187   0.0000   0.0000   0.0000   0.3532
  17.900   0.7450   0.21462   0.21157  -0.0857  0.0259  1.0000  -1.4245   0.0000   0.0000   0.0000   0.3532
  18.000   0.7466   0.21579   0.21274  -0.0859  0.0256  1.0000  -1.4342   0.0000   0.0000   0.0000   0.3532
  18.100   0.7485   0.21697   0.21393  -0.0862  0.0252  1.0000  -1.4491   0.0000   0.0000   0.0000   0.3531
  18.200   0.7507   0.21822   0.21519  -0.0863  0.0249  1.0000  -1.4711   0.0000   0.0000   0.0000   0.3527
  18.300   0.7536   0.21965   0.21663  -0.0862  0.0246  1.0000  -1.5052   0.0000   0.0000   0.0000   0.3520
  18.400   0.7611   0.22275   0.21975  -0.0851  0.0240  1.0000  -1.5927   0.0000   0.0000   0.0000   0.3493
  18.500   0.7629   0.22650   0.22347  -0.0853  0.0237  1.0000  -1.5657   0.0000   0.0000   0.0000   0.3491
  18.600   0.7636   0.22776   0.22473  -0.0858  0.0237  1.0000  -1.5490   0.0000   0.0000   0.0000   0.3496
  18.700   0.7643   0.22899   0.22596  -0.0863  0.0237  1.0000  -1.5324   0.0000   0.0000   0.0000   0.3501
  18.800   0.7650   0.23021   0.22718  -0.0869  0.0236  1.0000  -1.5160   0.0000   0.0000   0.0000   0.3507
  18.900   0.7657   0.23141   0.22838  -0.0874  0.0236  1.0000  -1.4997   0.0000   0.0000   0.0000   0.3512
  19.000   0.7661   0.23255   0.22953  -0.0880  0.0236  1.0000  -1.4817   0.0000   0.0000   0.0000   0.3518
  19.100   0.7663   0.23365   0.23062  -0.0887  0.0235  1.0000  -1.4714   0.0000   0.0000   0.0000   0.3525
  19.200   0.7665   0.23470   0.23168  -0.0893  0.0235  1.0000  -1.4600   0.0000   0.0000   0.0000   0.3532
  19.300   0.7664   0.23570   0.23268  -0.0900  0.0235  1.0000  -1.4454   0.0000   0.0000   0.0000   0.3540
  19.400   0.7664   0.23668   0.23366  -0.0907  0.0234  1.0000  -1.4304   0.0000   0.0000   0.0000   0.3549
  19.500   0.7663   0.23765   0.23463  -0.0914  0.0234  1.0000  -1.4148   0.0000   0.0000   0.0000   0.3557
  19.600   0.7663   0.23862   0.23560  -0.0921  0.0233  1.0000  -1.3984   0.0000   0.0000   0.0000   0.3566
  19.700   0.7663   0.23957   0.23655  -0.0929  0.0232  1.0000  -1.3809   0.0000   0.0000   0.0000   0.3574
  19.800   0.7665   0.24053   0.23751  -0.0936  0.0231  1.0000  -1.3620   0.0000   0.0000   0.0000   0.3583
  19.900   0.7667   0.24152   0.23850  -0.0944  0.0230  1.0000  -1.3420   0.0000   0.0000   0.0000   0.3592
  20.000   0.7672   0.24257   0.23955  -0.0952  0.0227  1.0000  -1.3221   0.0000   0.0000   0.0000   0.3601
  20.100   0.7679   0.24371   0.24070  -0.0959  0.0224  1.0000  -1.3056   0.0000   0.0000   0.0000   0.3608
  20.200   0.7689   0.24495   0.24194  -0.0965  0.0220  1.0000  -1.2944   0.0000   0.0000   0.0000   0.3613
  20.300   0.7700   0.24622   0.24321  -0.0971  0.0217  1.0000  -1.2882   0.0000   0.0000   0.0000   0.3618
  20.400   0.7711   0.24752   0.24452  -0.0976  0.0213  1.0000  -1.2852   0.0000   0.0000   0.0000   0.3622
  20.500   0.7723   0.24883   0.24583  -0.0981  0.0209  1.0000  -1.2843   0.0000   0.0000   0.0000   0.3625
  20.600   0.7734   0.25014   0.24718  -0.0986  0.0206  1.0000  -1.2826   0.0000   0.0000   0.0000   0.3628
  20.700   0.7746   0.25145   0.24849  -0.0991  0.0202  1.0000  -1.2834   0.0000   0.0000   0.0000   0.3631
  20.800   0.7758   0.25275   0.24980  -0.0996  0.0199  1.0000  -1.2852   0.0000   0.0000   0.0000   0.3634
  20.900   0.7770   0.25406   0.25110  -0.1000  0.0196  1.0000  -1.2876   0.0000   0.0000   0.0000   0.3637
  21.000   0.7782   0.25536   0.25241  -0.1005  0.0193  1.0000  -1.2907   0.0000   0.0000   0.0000   0.3640
  21.100   0.7794   0.25666   0.25371  -0.1010  0.0190  1.0000  -1.2942   0.0000   0.0000   0.0000   0.3642
  21.200   0.7806   0.25795   0.25501  -0.1014  0.0187  1.0000  -1.2983   0.0000   0.0000   0.0000   0.3645
  21.300   0.7818   0.25924   0.25631  -0.1019  0.0184  1.0000  -1.3028   0.0000   0.0000   0.0000   0.3647
  21.400   0.7830   0.26053   0.25760  -0.1023  0.0182  1.0000  -1.3078   0.0000   0.0000   0.0000   0.3649
  21.500   0.7843   0.26182   0.25889  -0.1028  0.0179  1.0000  -1.3133   0.0000   0.0000   0.0000   0.3652
  21.600   0.7855   0.26310   0.26018  -0.1032  0.0177  1.0000  -1.3195   0.0000   0.0000   0.0000   0.3654
  21.700   0.7867   0.26438   0.26146  -0.1036  0.0174  1.0000  -1.3265   0.0000   0.0000   0.0000   0.3656
  21.800   0.7880   0.26566   0.26274  -0.1041  0.0172  1.0000  -1.3343   0.0000   0.0000   0.0000   0.3658
  21.900   0.7892   0.26693   0.26402  -0.1045  0.0170  1.0000  -1.3431   0.0000   0.0000   0.0000   0.3659
  22.000   0.7905   0.26821   0.26530  -0.1049  0.0168  1.0000  -1.3533   0.0000   0.0000   0.0000   0.3661
  22.100   0.7918   0.26948   0.26659  -0.1053  0.0165  1.0000  -1.3653   0.0000   0.0000   0.0000   0.3662
  22.200   0.7931   0.27078   0.26789  -0.1056  0.0163  1.0000  -1.3794   0.0000   0.0000   0.0000   0.3662
  22.300   0.7946   0.27210   0.26922  -0.1059  0.0161  1.0000  -1.3965   0.0000   0.0000   0.0000   0.3663
  22.400   0.7961   0.27349   0.27061  -0.1062  0.0159  1.0000  -1.4176   0.0000   0.0000   0.0000   0.3662
  22.500   0.7978   0.27502   0.27215  -0.1064  0.0158  1.0000  -1.4448   0.0000   0.0000   0.0000   0.3659
  22.600   0.8002   0.27697   0.27410  -0.1064  0.0155  1.0000  -1.4840   0.0000   0.0000   0.0000   0.3653
  22.700   1.1979   0.32128   0.31795  -0.1792  0.0124  1.0000  -2.0646   0.0000   0.0000   0.0000   0.3779
  22.800   1.2012   0.32263   0.31929  -0.1802  0.0122  1.0000  -2.0604   0.0000   0.0000   0.0000   0.3782
  22.900   1.2045   0.32397   0.32064  -0.1812  0.0120  1.0000  -2.0574   0.0000   0.0000   0.0000   0.3784
  23.000   1.2077   0.32530   0.32197  -0.1822  0.0118  1.0000  -2.0556   0.0000   0.0000   0.0000   0.3786
  23.100   1.2109   0.32662   0.32330  -0.1831  0.0116  1.0000  -2.0548   0.0000   0.0000   0.0000   0.3788
  23.200   1.2142   0.32796   0.32467  -0.1841  0.0114  1.0000  -2.0552   0.0000   0.0000   0.0000   0.3791
  23.300   1.2173   0.32924   0.32595  -0.1851  0.0112  1.0000  -2.0566   0.0000   0.0000   0.0000   0.3793
  23.400   1.2205   0.33053   0.32725  -0.1860  0.0110  1.0000  -2.0590   0.0000   0.0000   0.0000   0.3795
  23.500   1.2237   0.33181   0.32853  -0.1870  0.0109  1.0000  -2.0625   0.0000   0.0000   0.0000   0.3797
  23.600   1.2268   0.33308   0.32980  -0.1880  0.0107  1.0000  -2.0673   0.0000   0.0000   0.0000   0.3799
  23.700   1.2299   0.33434   0.33107  -0.1889  0.0106  1.0000  -2.0732   0.0000   0.0000   0.0000   0.3801
  23.800   1.2330   0.33559   0.33232  -0.1899  0.0104  1.0000  -2.0806   0.0000   0.0000   0.0000   0.3802
  23.900   1.2361   0.33683   0.33357  -0.1908  0.0103  1.0000  -2.0894   0.0000   0.0000   0.0000   0.3804
  24.000   1.2391   0.33806   0.33480  -0.1917  0.0101  1.0000  -2.0998   0.0000   0.0000   0.0000   0.3806
  24.100   1.2421   0.33928   0.33603  -0.1926  0.0100  1.0000  -2.1120   0.0000   0.0000   0.0000   0.3807
  24.200   1.2451   0.34051   0.33726  -0.1935  0.0099  1.0000  -2.1263   0.0000   0.0000   0.0000   0.3809
  24.300   1.2480   0.34173   0.33849  -0.1944  0.0098  1.0000  -2.1429   0.0000   0.0000   0.0000   0.3810
  24.400   1.2509   0.34297   0.33973  -0.1952  0.0097  1.0000  -2.1623   0.0000   0.0000   0.0000   0.3811
  24.500   1.2537   0.34424   0.34101  -0.1960  0.0096  1.0000  -2.1848   0.0000   0.0000   0.0000   0.3811
  24.600   1.2565   0.34560   0.34238  -0.1967  0.0095  1.0000  -2.2113   0.0000   0.0000   0.0000   0.3811
  24.700   1.2593   0.34709   0.34388  -0.1974  0.0094  1.0000  -2.2429   0.0000   0.0000   0.0000   0.3810
  24.800   1.2620   0.34893   0.34572  -0.1977  0.0093  1.0000  -2.2821   0.0000   0.0000   0.0000   0.3808
  24.900   1.2648   0.35210   0.34890  -0.1976  0.0091  1.0000  -2.3363   0.0000   0.0000   0.0000   0.3801


