xflr5 v6.61

 Calculated polar for: AG14

 1 1 Reynolds number fixed          Mach number fixed         

 xtrf =   1.000 (top)        1.000 (bottom)
 Mach =   0.000     Re =     0.060 e 6     Ncrit =   9.000

  alpha     CL        CD       CDp       Cm    Top Xtr Bot Xtr   Cpmin    Chinge    XCp    
 ------- -------- --------- --------- -------- ------- ------- -------- --------- ---------
   0.000   0.1765   0.01282   0.00352  -0.0397  1.0000  1.0000  -0.3880   0.0000   0.0000   0.0000   0.4744
   0.500   0.2265   0.01311   0.00367  -0.0393  1.0000  1.0000  -0.4507   0.0000   0.0000   0.0000   0.4225
   1.000   0.2754   0.01356   0.00409  -0.0391  1.0000  1.0000  -0.5217   0.0000   0.0000   0.0000   0.3909
   1.500   0.3228   0.01429   0.00489  -0.0396  1.0000  1.0000  -0.6002   0.0000   0.0000   0.0000   0.3712
   2.000   0.3750   0.01562   0.00638  -0.0429  0.9949  1.0000  -0.6914   0.0000   0.0000   0.0000   0.3627
   2.500   0.5299   0.01576   0.00707  -0.0609  0.8973  1.0000  -0.9419   0.0000   0.0000   0.0000   0.3631
   3.000   0.5936   0.01583   0.00724  -0.0576  0.7850  1.0000  -1.1217   0.0000   0.0000   0.0000   0.3450
   3.500   0.6361   0.01657   0.00768  -0.0513  0.6719  1.0000  -1.2984   0.0000   0.0000   0.0000   0.3283
   4.000   0.6804   0.01778   0.00849  -0.0466  0.5611  1.0000  -1.5139   0.0000   0.0000   0.0000   0.3158
   4.500   0.7263   0.01936   0.00977  -0.0432  0.4553  1.0000  -1.7919   0.0000   0.0000   0.0000   0.3064
   5.000   0.7729   0.02131   0.01139  -0.0405  0.3574  1.0000  -2.2198   0.0000   0.0000   0.0000   0.2990
   5.500   0.8203   0.02375   0.01362  -0.0384  0.2746  1.0000  -2.7384   0.0000   0.0000   0.0000   0.2929
   6.000   0.8682   0.02685   0.01677  -0.0365  0.2100  1.0000  -3.2406   0.0000   0.0000   0.0000   0.2877
   6.500   0.9157   0.03073   0.02067  -0.0348  0.1609  1.0000  -3.7197   0.0000   0.0000   0.0000   0.2832
   7.000   0.9607   0.03582   0.02640  -0.0329  0.1239  1.0000  -4.0671   0.0000   0.0000   0.0000   0.2789
   7.500   0.9976   0.04340   0.03518  -0.0309  0.1016  1.0000  -4.2050   0.0000   0.0000   0.0000   0.2754
   8.000   1.0225   0.05227   0.04507  -0.0296  0.0875  1.0000  -4.3277   0.0000   0.0000   0.0000   0.2731
   8.500   1.0209   0.06603   0.05998  -0.0309  0.0891  1.0000  -4.0992   0.0000   0.0000   0.0000   0.2743
   9.000   1.0055   0.07984   0.07425  -0.0347  0.0934  1.0000  -3.8681   0.0000   0.0000   0.0000   0.2783
   9.500   0.7421   0.11343   0.10772  -0.0628  0.2669  1.0000  -1.8979   0.0000   0.0000   0.0000   0.3296
  10.000   0.7453   0.12303   0.11736  -0.0630  0.2552  1.0000  -1.9064   0.0000   0.0000   0.0000   0.3293
  10.500   0.7539   0.13144   0.12582  -0.0617  0.2287  1.0000  -1.9553   0.0000   0.0000   0.0000   0.3263
  11.000   0.7504   0.13984   0.13422  -0.0624  0.2152  1.0000  -1.9204   0.0000   0.0000   0.0000   0.3273
  11.500   0.7361   0.14613   0.14048  -0.0641  0.2030  1.0000  -1.8382   0.0000   0.0000   0.0000   0.3310
  12.000   0.7186   0.15147   0.14577  -0.0662  0.1930  1.0000  -1.7348   0.0000   0.0000   0.0000   0.3357
  12.500   0.7121   0.15684   0.15116  -0.0668  0.1807  1.0000  -1.6761   0.0000   0.0000   0.0000   0.3370
  13.000   0.7122   0.16236   0.15669  -0.0670  0.1651  1.0000  -1.6491   0.0000   0.0000   0.0000   0.3370
  13.500   0.7084   0.16783   0.16217  -0.0685  0.1571  1.0000  -1.6093   0.0000   0.0000   0.0000   0.3392
  14.000   0.7228   0.17650   0.17087  -0.0687  0.1474  1.0000  -1.6590   0.0000   0.0000   0.0000   0.3372
  14.500   0.7156   0.17975   0.17412  -0.0708  0.1371  1.0000  -1.5974   0.0000   0.0000   0.0000   0.3407
  15.000   0.7127   0.18466   0.17902  -0.0731  0.1288  1.0000  -1.5402   0.0000   0.0000   0.0000   0.3440
  15.500   0.7255   0.19287   0.18725  -0.0737  0.1206  1.0000  -1.5723   0.0000   0.0000   0.0000   0.3425
  16.000   0.7210   0.19633   0.19077  -0.0766  0.1130  1.0000  -1.4924   0.0000   0.0000   0.0000   0.3468
  16.500   0.7358   0.20563   0.20010  -0.0772  0.1078  1.0000  -1.5245   0.0000   0.0000   0.0000   0.3449
  17.000   0.7294   0.20821   0.20268  -0.0807  0.1020  1.0000  -1.4210   0.0000   0.0000   0.0000   0.3503
  17.500   0.7498   0.21947   0.21397  -0.0806  0.0950  1.0000  -1.4914   0.0000   0.0000   0.0000   0.3466
  18.000   0.7402   0.22042   0.21491  -0.0848  0.0909  1.0000  -1.3562   0.0000   0.0000   0.0000   0.3532
  18.500   0.7568   0.22996   0.22451  -0.0850  0.0830  1.0000  -1.4130   0.0000   0.0000   0.0000   0.3504
  19.000   0.7554   0.23432   0.22885  -0.0882  0.0813  1.0000  -1.3174   0.0000   0.0000   0.0000   0.3544
  19.500   0.7570   0.23891   0.23347  -0.0913  0.0765  1.0000  -1.2412   0.0000   0.0000   0.0000   0.3576
  20.000   0.7660   0.24595   0.24055  -0.0928  0.0716  1.0000  -1.2405   0.0000   0.0000   0.0000   0.3576


