xflr5 v6.61

 Calculated polar for: AG14

 1 1 Reynolds number fixed          Mach number fixed         

 xtrf =   1.000 (top)        1.000 (bottom)
 Mach =   0.000     Re =     0.200 e 6     Ncrit =   9.000

  alpha     CL        CD       CDp       Cm    Top Xtr Bot Xtr   Cpmin    Chinge    XCp    
 ------- -------- --------- --------- -------- ------- ------- -------- --------- ---------
   0.000   0.1963   0.00723   0.00220  -0.0425  1.0000  1.0000  -0.4020   0.0000   0.0000   0.0000   0.4660
   0.500   0.2772   0.00737   0.00226  -0.0481  0.9806  1.0000  -0.4929   0.0000   0.0000   0.0000   0.4225
   1.000   0.3618   0.00732   0.00216  -0.0533  0.9278  1.0000  -0.6064   0.0000   0.0000   0.0000   0.3963
   1.500   0.4202   0.00743   0.00207  -0.0523  0.8414  1.0000  -0.7162   0.0000   0.0000   0.0000   0.3731
   2.000   0.4684   0.00786   0.00213  -0.0493  0.7403  1.0000  -0.8330   0.0000   0.0000   0.0000   0.3537
   2.500   0.5178   0.00849   0.00230  -0.0472  0.6373  1.0000  -0.9683   0.0000   0.0000   0.0000   0.3392
   3.000   0.5686   0.00921   0.00264  -0.0457  0.5384  1.0000  -1.1277   0.0000   0.0000   0.0000   0.3282
   3.500   0.6200   0.00999   0.00305  -0.0447  0.4482  1.0000  -1.3236   0.0000   0.0000   0.0000   0.3196
   4.000   0.6718   0.01081   0.00357  -0.0439  0.3646  1.0000  -1.5681   0.0000   0.0000   0.0000   0.3125
   4.500   0.7236   0.01172   0.00428  -0.0433  0.2856  1.0000  -1.9142   0.0000   0.0000   0.0000   0.3065
   5.000   0.7750   0.01281   0.00513  -0.0427  0.2126  1.0000  -2.4775   0.0000   0.0000   0.0000   0.3013
   5.500   0.8257   0.01411   0.00628  -0.0420  0.1505  1.0000  -3.0872   0.0000   0.0000   0.0000   0.2967
   6.000   0.8757   0.01567   0.00776  -0.0412  0.1046  1.0000  -3.7251   0.0000   0.0000   0.0000   0.2924
   6.500   0.9237   0.01773   0.00976  -0.0402  0.0698  1.0000  -4.3535   0.0000   0.0000   0.0000   0.2884
   7.000   0.9711   0.02009   0.01236  -0.0389  0.0435  1.0000  -4.9633   0.0000   0.0000   0.0000   0.2844
   7.500   1.0162   0.02347   0.01607  -0.0371  0.0288  1.0000  -5.5213   0.0000   0.0000   0.0000   0.2803
   8.000   1.0570   0.02827   0.02137  -0.0351  0.0219  1.0000  -5.9918   0.0000   0.0000   0.0000   0.2765
   8.500   1.0915   0.03506   0.02913  -0.0326  0.0199  1.0000  -6.2060   0.0000   0.0000   0.0000   0.2727
   9.000   1.1048   0.04533   0.04062  -0.0299  0.0201  1.0000  -6.0963   0.0000   0.0000   0.0000   0.2696
   9.500   1.0901   0.05739   0.05363  -0.0289  0.0211  1.0000  -5.8021   0.0000   0.0000   0.0000   0.2687
  10.000   1.0539   0.06830   0.06503  -0.0316  0.0216  1.0000  -5.5393   0.0000   0.0000   0.0000   0.2718
  10.500   1.0142   0.08660   0.08360  -0.0491  0.0220  1.0000  -5.0994   0.0000   0.0000   0.0000   0.2899
  11.000   0.9754   0.10831   0.10527  -0.0628  0.0231  1.0000  -4.4384   0.0000   0.0000   0.0000   0.3058
  12.000   0.7752   0.13152   0.12845  -0.0568  0.0298  1.0000  -2.8772   0.0000   0.0000   0.0000   0.3153
  12.500   0.7620   0.14085   0.13776  -0.0590  0.0327  1.0000  -2.6799   0.0000   0.0000   0.0000   0.3192


