xflr5 v6.61

 Calculated polar for: AG14

 1 1 Reynolds number fixed          Mach number fixed         

 xtrf =   1.000 (top)        1.000 (bottom)
 Mach =   0.000     Re =     0.040 e 6     Ncrit =   9.000

  alpha     CL        CD       CDp       Cm    Top Xtr Bot Xtr   Cpmin    Chinge    XCp    
 ------- -------- --------- --------- -------- ------- ------- -------- --------- ---------
   0.000   0.1697   0.01563   0.00417  -0.0389  1.0000  1.0000  -0.3977   0.0000   0.0000   0.0000   0.4786
   0.500   0.2191   0.01592   0.00428  -0.0384  1.0000  1.0000  -0.4444   0.0000   0.0000   0.0000   0.4242
   1.000   0.2671   0.01636   0.00468  -0.0380  1.0000  1.0000  -0.5131   0.0000   0.0000   0.0000   0.3912
   1.500   0.3136   0.01704   0.00542  -0.0381  1.0000  1.0000  -0.5895   0.0000   0.0000   0.0000   0.3700
   2.000   0.3572   0.01816   0.00669  -0.0389  1.0000  1.0000  -0.6708   0.0000   0.0000   0.0000   0.3573
   2.500   0.3951   0.02013   0.00892  -0.0413  1.0000  1.0000  -0.7476   0.0000   0.0000   0.0000   0.3527
   3.000   0.5768   0.02180   0.01149  -0.0670  0.8887  1.0000  -1.0531   0.0000   0.0000   0.0000   0.3641
   3.500   0.6562   0.02184   0.01191  -0.0639  0.7628  1.0000  -1.2871   0.0000   0.0000   0.0000   0.3451
   4.000   0.6962   0.02289   0.01282  -0.0554  0.6481  1.0000  -1.4884   0.0000   0.0000   0.0000   0.3270
   4.500   0.7374   0.02458   0.01435  -0.0487  0.5379  1.0000  -1.7374   0.0000   0.0000   0.0000   0.3131
   5.000   0.7813   0.02688   0.01636  -0.0437  0.4351  1.0000  -2.1177   0.0000   0.0000   0.0000   0.3026
   5.500   0.8266   0.03000   0.01944  -0.0402  0.3458  1.0000  -2.5584   0.0000   0.0000   0.0000   0.2950
   6.000   0.8721   0.03380   0.02344  -0.0373  0.2742  1.0000  -3.0020   0.0000   0.0000   0.0000   0.2887
   6.500   0.9161   0.03886   0.02892  -0.0350  0.2200  1.0000  -3.3853   0.0000   0.0000   0.0000   0.2838
   7.000   0.9554   0.04612   0.03693  -0.0334  0.1845  1.0000  -3.6297   0.0000   0.0000   0.0000   0.2802
   7.500   0.9880   0.05483   0.04627  -0.0322  0.1612  1.0000  -3.7753   0.0000   0.0000   0.0000   0.2774
   8.000   0.9901   0.06867   0.06134  -0.0356  0.1581  1.0000  -3.5763   0.0000   0.0000   0.0000   0.2808
   8.500   0.9791   0.08278   0.07588  -0.0414  0.1595  1.0000  -3.3697   0.0000   0.0000   0.0000   0.2869
   9.500   0.8643   0.12742   0.12006  -0.0926  0.3757  1.0000  -2.0583   0.0000   0.0000   0.0000   0.3517
  10.000   0.8812   0.13759   0.13031  -0.0923  0.3512  1.0000  -2.1070   0.0000   0.0000   0.0000   0.3490
  10.500   0.8709   0.14428   0.13694  -0.0935  0.3305  1.0000  -2.0561   0.0000   0.0000   0.0000   0.3512
  11.000   0.8775   0.15258   0.14525  -0.0937  0.3033  1.0000  -2.0562   0.0000   0.0000   0.0000   0.3503
  11.500   0.8858   0.16114   0.15380  -0.0943  0.2795  1.0000  -2.0474   0.0000   0.0000   0.0000   0.3495
  12.000   0.8920   0.16917   0.16183  -0.0958  0.2613  1.0000  -2.0159   0.0000   0.0000   0.0000   0.3501
  12.500   0.9137   0.18017   0.17287  -0.0961  0.2421  1.0000  -2.0655   0.0000   0.0000   0.0000   0.3474
  13.000   0.9105   0.18555   0.17818  -0.0992  0.2254  1.0000  -2.0239   0.0000   0.0000   0.0000   0.3507
  13.500   0.9191   0.19301   0.18562  -0.1016  0.2099  1.0000  -2.0220   0.0000   0.0000   0.0000   0.3519
  14.000   0.9310   0.20109   0.19368  -0.1042  0.1979  1.0000  -2.0232   0.0000   0.0000   0.0000   0.3528
  14.500   0.9459   0.20977   0.20243  -0.1066  0.1864  1.0000  -2.0303   0.0000   0.0000   0.0000   0.3530
  15.000   0.9602   0.21790   0.21055  -0.1092  0.1735  1.0000  -2.0362   0.0000   0.0000   0.0000   0.3536
  15.500   0.9763   0.22653   0.21917  -0.1117  0.1607  1.0000  -2.0490   0.0000   0.0000   0.0000   0.3537
  16.000   0.9859   0.23170   0.22433  -0.1160  0.1504  1.0000  -2.0172   0.0000   0.0000   0.0000   0.3563
  16.500   0.9974   0.23827   0.23086  -0.1205  0.1439  1.0000  -1.9791   0.0000   0.0000   0.0000   0.3589
  17.000   1.0241   0.25207   0.24470  -0.1211  0.1346  1.0000  -2.0417   0.0000   0.0000   0.0000   0.3559
  17.500   1.0274   0.25240   0.24498  -0.1284  0.1289  1.0000  -1.9407   0.0000   0.0000   0.0000   0.3618
  18.000   1.0503   0.26460   0.25720  -0.1298  0.1211  1.0000  -1.9818   0.0000   0.0000   0.0000   0.3599
  18.500   1.0590   0.26640   0.25897  -0.1365  0.1139  1.0000  -1.9044   0.0000   0.0000   0.0000   0.3644
  19.000   1.0795   0.27738   0.27005  -0.1387  0.1076  1.0000  -1.9293   0.0000   0.0000   0.0000   0.3633
  19.500   1.0909   0.28007   0.27272  -0.1451  0.1017  1.0000  -1.8604   0.0000   0.0000   0.0000   0.3671
  20.000   1.1180   0.29817   0.29089  -0.1449  0.0953  1.0000  -1.9856   0.0000   0.0000   0.0000   0.3630


