xflr5 v6.61

 Calculated polar for: AG14

 1 1 Reynolds number fixed          Mach number fixed         

 xtrf =   1.000 (top)        1.000 (bottom)
 Mach =   0.000     Re =     0.160 e 6     Ncrit =   9.000

  alpha     CL        CD       CDp       Cm    Top Xtr Bot Xtr   Cpmin    Chinge    XCp    
 ------- -------- --------- --------- -------- ------- ------- -------- --------- ---------
   0.000   0.1927   0.00802   0.00239  -0.0420  1.0000  1.0000  -0.3994   0.0000   0.0000   0.0000   0.4672
   0.500   0.2450   0.00831   0.00261  -0.0420  1.0000  1.0000  -0.4668   0.0000   0.0000   0.0000   0.4205
   1.000   0.3444   0.00838   0.00266  -0.0510  0.9596  1.0000  -0.5877   0.0000   0.0000   0.0000   0.3969
   1.500   0.4219   0.00833   0.00257  -0.0541  0.8887  1.0000  -0.7150   0.0000   0.0000   0.0000   0.3768
   2.000   0.4733   0.00859   0.00258  -0.0512  0.7909  1.0000  -0.8358   0.0000   0.0000   0.0000   0.3566
   2.500   0.5211   0.00916   0.00272  -0.0482  0.6848  1.0000  -0.9692   0.0000   0.0000   0.0000   0.3407
   3.000   0.5703   0.00990   0.00306  -0.0462  0.5812  1.0000  -1.1263   0.0000   0.0000   0.0000   0.3287
   3.500   0.6207   0.01073   0.00350  -0.0447  0.4846  1.0000  -1.3194   0.0000   0.0000   0.0000   0.3195
   4.000   0.6716   0.01164   0.00407  -0.0436  0.3954  1.0000  -1.5599   0.0000   0.0000   0.0000   0.3121
   4.500   0.7225   0.01265   0.00484  -0.0428  0.3117  1.0000  -1.8954   0.0000   0.0000   0.0000   0.3059
   5.000   0.7732   0.01383   0.00578  -0.0420  0.2329  1.0000  -2.4395   0.0000   0.0000   0.0000   0.3006
   5.500   0.8232   0.01528   0.00708  -0.0412  0.1667  1.0000  -3.0342   0.0000   0.0000   0.0000   0.2959
   6.000   0.8724   0.01707   0.00875  -0.0403  0.1177  1.0000  -3.6511   0.0000   0.0000   0.0000   0.2916
   6.500   0.9203   0.01924   0.01091  -0.0392  0.0806  1.0000  -4.2582   0.0000   0.0000   0.0000   0.2875
   7.000   0.9672   0.02199   0.01392  -0.0377  0.0524  1.0000  -4.8041   0.0000   0.0000   0.0000   0.2834
   7.500   1.0113   0.02570   0.01783  -0.0361  0.0352  1.0000  -5.3689   0.0000   0.0000   0.0000   0.2795
   8.000   1.0537   0.03061   0.02348  -0.0340  0.0274  1.0000  -5.7728   0.0000   0.0000   0.0000   0.2756
   8.500   1.0825   0.03879   0.03244  -0.0319  0.0241  1.0000  -5.9980   0.0000   0.0000   0.0000   0.2723
   9.000   1.0937   0.04924   0.04401  -0.0297  0.0239  1.0000  -5.9343   0.0000   0.0000   0.0000   0.2697
   9.500   1.0953   0.05799   0.05363  -0.0282  0.0247  1.0000  -5.8734   0.0000   0.0000   0.0000   0.2679
  10.000   1.0378   0.07310   0.06963  -0.0338  0.0268  1.0000  -5.1757   0.0000   0.0000   0.0000   0.2746
  10.500   0.9764   0.10207   0.09873  -0.0582  0.0300  1.0000  -4.1375   0.0000   0.0000   0.0000   0.3017
  11.000   0.9536   0.11784   0.11440  -0.0662  0.0320  1.0000  -3.7457   0.0000   0.0000   0.0000   0.3113
  11.500   0.7835   0.12400   0.12059  -0.0527  0.0434  1.0000  -2.8676   0.0000   0.0000   0.0000   0.3097
  13.500   0.7456   0.16221   0.15877  -0.0616  0.0571  1.0000  -2.1309   0.0000   0.0000   0.0000   0.3243
  14.000   0.7231   0.16731   0.16383  -0.0673  0.0556  1.0000  -1.8466   0.0000   0.0000   0.0000   0.3346
  14.500   0.7184   0.17317   0.16969  -0.0705  0.0509  1.0000  -1.7356   0.0000   0.0000   0.0000   0.3394
  15.000   0.7254   0.17893   0.17550  -0.0715  0.0474  1.0000  -1.7750   0.0000   0.0000   0.0000   0.3394
  15.500   0.7456   0.18935   0.18594  -0.0703  0.0452  1.0000  -1.9019   0.0000   0.0000   0.0000   0.3345
  16.000   0.7354   0.19359   0.19017  -0.0747  0.0448  1.0000  -1.7045   0.0000   0.0000   0.0000   0.3416
  16.500   0.7290   0.19822   0.19478  -0.0794  0.0417  1.0000  -1.5134   0.0000   0.0000   0.0000   0.3486
  17.000   0.7338   0.20425   0.20082  -0.0816  0.0383  1.0000  -1.4654   0.0000   0.0000   0.0000   0.3505
  17.500   1.0290   0.24676   0.24296  -0.1300  0.0290  1.0000  -1.9333   0.0000   0.0000   0.0000   0.3626
  18.000   1.0449   0.25400   0.25020  -0.1341  0.0268  1.0000  -1.9365   0.0000   0.0000   0.0000   0.3640
  18.500   1.0614   0.26104   0.25731  -0.1373  0.0251  1.0000  -2.0706   0.0000   0.0000   0.0000   0.3643
  19.000   1.0826   0.27562   0.27191  -0.1364  0.0237  1.0000  -2.3278   0.0000   0.0000   0.0000   0.3601
  19.500   1.0964   0.28172   0.27800  -0.1423  0.0236  1.0000  -2.2941   0.0000   0.0000   0.0000   0.3632
  20.000   1.1089   0.28599   0.28224  -0.1494  0.0233  1.0000  -2.2082   0.0000   0.0000   0.0000   0.3675


