xflr5 v6.61

 Calculated polar for: AG14

 1 1 Reynolds number fixed          Mach number fixed         

 xtrf =   1.000 (top)        1.000 (bottom)
 Mach =   0.000     Re =     0.021 e 6     Ncrit =   9.000

  alpha     CL        CD       CDp       Cm    Top Xtr Bot Xtr   Cpmin    Chinge    XCp    
 ------- -------- --------- --------- -------- ------- ------- -------- --------- ---------
   0.000   0.1579   0.02167   0.00554  -0.0376  1.0000  1.0000  -0.4147   0.0000   0.0000   0.0000   0.4875
   0.100   0.1676   0.02172   0.00552  -0.0374  1.0000  1.0000  -0.3858   0.0000   0.0000   0.0000   0.4728
   0.200   0.1773   0.02178   0.00552  -0.0373  1.0000  1.0000  -0.3972   0.0000   0.0000   0.0000   0.4598
   0.300   0.1870   0.02184   0.00552  -0.0372  1.0000  1.0000  -0.4088   0.0000   0.0000   0.0000   0.4481
   0.400   0.1966   0.02190   0.00554  -0.0371  1.0000  1.0000  -0.4211   0.0000   0.0000   0.0000   0.4377
   0.500   0.2061   0.02197   0.00558  -0.0369  1.0000  1.0000  -0.4334   0.0000   0.0000   0.0000   0.4284
   0.600   0.2157   0.02205   0.00562  -0.0368  1.0000  1.0000  -0.4456   0.0000   0.0000   0.0000   0.4199
   0.700   0.2251   0.02213   0.00568  -0.0367  1.0000  1.0000  -0.4585   0.0000   0.0000   0.0000   0.4121
   0.800   0.2346   0.02222   0.00575  -0.0366  1.0000  1.0000  -0.4718   0.0000   0.0000   0.0000   0.4051
   0.900   0.2439   0.02231   0.00583  -0.0365  1.0000  1.0000  -0.4851   0.0000   0.0000   0.0000   0.3987
   1.000   0.2532   0.02242   0.00593  -0.0364  1.0000  1.0000  -0.4983   0.0000   0.0000   0.0000   0.3927
   1.100   0.2625   0.02253   0.00604  -0.0363  1.0000  1.0000  -0.5124   0.0000   0.0000   0.0000   0.3873
   1.200   0.2716   0.02264   0.00617  -0.0363  1.0000  1.0000  -0.5269   0.0000   0.0000   0.0000   0.3823
   1.300   0.2807   0.02277   0.00630  -0.0362  1.0000  1.0000  -0.5413   0.0000   0.0000   0.0000   0.3777
   1.400   0.2897   0.02291   0.00646  -0.0361  1.0000  1.0000  -0.5557   0.0000   0.0000   0.0000   0.3735
   1.500   0.2986   0.02305   0.00662  -0.0361  1.0000  1.0000  -0.5705   0.0000   0.0000   0.0000   0.3695
   1.600   0.3074   0.02321   0.00681  -0.0361  1.0000  1.0000  -0.5863   0.0000   0.0000   0.0000   0.3659
   1.700   0.3161   0.02339   0.00701  -0.0360  1.0000  1.0000  -0.6020   0.0000   0.0000   0.0000   0.3626
   1.800   0.3248   0.02357   0.00723  -0.0361  1.0000  1.0000  -0.6176   0.0000   0.0000   0.0000   0.3595
   1.900   0.3333   0.02378   0.00748  -0.0361  1.0000  1.0000  -0.6330   0.0000   0.0000   0.0000   0.3567
   2.000   0.3418   0.02400   0.00774  -0.0362  1.0000  1.0000  -0.6488   0.0000   0.0000   0.0000   0.3542
   2.100   0.3501   0.02424   0.00803  -0.0363  1.0000  1.0000  -0.6660   0.0000   0.0000   0.0000   0.3519
   2.200   0.3583   0.02450   0.00834  -0.0364  1.0000  1.0000  -0.6829   0.0000   0.0000   0.0000   0.3498
   2.300   0.3663   0.02478   0.00868  -0.0365  1.0000  1.0000  -0.6995   0.0000   0.0000   0.0000   0.3480
   2.400   0.3741   0.02510   0.00905  -0.0367  1.0000  1.0000  -0.7157   0.0000   0.0000   0.0000   0.3463
   2.500   0.3817   0.02544   0.00945  -0.0370  1.0000  1.0000  -0.7315   0.0000   0.0000   0.0000   0.3450
   2.600   0.3891   0.02581   0.00993  -0.0373  1.0000  1.0000  -0.7468   0.0000   0.0000   0.0000   0.3438
   2.700   0.3962   0.02622   0.01040  -0.0376  1.0000  1.0000  -0.7635   0.0000   0.0000   0.0000   0.3429
   2.800   0.4031   0.02666   0.01090  -0.0380  1.0000  1.0000  -0.7801   0.0000   0.0000   0.0000   0.3422
   2.900   0.4097   0.02714   0.01145  -0.0384  1.0000  1.0000  -0.7961   0.0000   0.0000   0.0000   0.3417
   3.000   0.4161   0.02767   0.01203  -0.0390  1.0000  1.0000  -0.8114   0.0000   0.0000   0.0000   0.3415
   3.100   0.4222   0.02824   0.01267  -0.0396  1.0000  1.0000  -0.8260   0.0000   0.0000   0.0000   0.3414
   3.200   0.4281   0.02885   0.01334  -0.0402  1.0000  1.0000  -0.8397   0.0000   0.0000   0.0000   0.3416
   3.300   0.4337   0.02951   0.01407  -0.0409  1.0000  1.0000  -0.8526   0.0000   0.0000   0.0000   0.3420
   3.400   0.4391   0.03021   0.01483  -0.0417  1.0000  1.0000  -0.8647   0.0000   0.0000   0.0000   0.3426
   3.500   0.4442   0.03096   0.01565  -0.0426  1.0000  1.0000  -0.8760   0.0000   0.0000   0.0000   0.3433
   3.600   0.4491   0.03175   0.01650  -0.0435  1.0000  1.0000  -0.8880   0.0000   0.0000   0.0000   0.3442
   3.700   0.4539   0.03259   0.01740  -0.0444  1.0000  1.0000  -0.9005   0.0000   0.0000   0.0000   0.3452
   3.800   0.4585   0.03346   0.01833  -0.0454  1.0000  1.0000  -0.9123   0.0000   0.0000   0.0000   0.3463
   3.900   0.4629   0.03437   0.01931  -0.0464  1.0000  1.0000  -0.9232   0.0000   0.0000   0.0000   0.3474
   4.000   0.4671   0.03531   0.02031  -0.0474  1.0000  1.0000  -0.9335   0.0000   0.0000   0.0000   0.3486
   4.100   0.4713   0.03628   0.02135  -0.0484  1.0000  1.0000  -0.9432   0.0000   0.0000   0.0000   0.3499
   4.200   0.5573   0.03945   0.02526  -0.0660  0.9404  1.0000  -1.0704   0.0000   0.0000   0.0000   0.3655
   4.300   0.6196   0.04136   0.02770  -0.0759  0.8814  1.0000  -1.1881   0.0000   0.0000   0.0000   0.3696
   4.400   0.6737   0.04262   0.02947  -0.0821  0.8269  1.0000  -1.3017   0.0000   0.0000   0.0000   0.3690
   4.500   0.7100   0.04341   0.03063  -0.0843  0.7843  1.0000  -1.4004   0.0000   0.0000   0.0000   0.3658
   4.600   0.7382   0.04392   0.03142  -0.0842  0.7478  1.0000  -1.4844   0.0000   0.0000   0.0000   0.3611
   4.700   0.7542   0.04458   0.03237  -0.0831  0.7201  1.0000  -1.5497   0.0000   0.0000   0.0000   0.3573
   4.800   0.7690   0.04515   0.03308  -0.0815  0.6933  1.0000  -1.6140   0.0000   0.0000   0.0000   0.3530
   4.900   0.7771   0.04608   0.03412  -0.0803  0.6721  1.0000  -1.6529   0.0000   0.0000   0.0000   0.3504
   5.000   0.7881   0.04679   0.03493  -0.0786  0.6494  1.0000  -1.7160   0.0000   0.0000   0.0000   0.3467
   5.100   0.8005   0.04732   0.03557  -0.0763  0.6265  1.0000  -1.7899   0.0000   0.0000   0.0000   0.3423
   5.200   0.8067   0.04848   0.03680  -0.0754  0.6086  1.0000  -1.8360   0.0000   0.0000   0.0000   0.3404
   5.300   0.8149   0.04942   0.03784  -0.0740  0.5893  1.0000  -1.8954   0.0000   0.0000   0.0000   0.3376
   5.400   0.8256   0.05016   0.03865  -0.0720  0.5700  1.0000  -1.9711   0.0000   0.0000   0.0000   0.3340
   5.500   0.8313   0.05145   0.04002  -0.0712  0.5542  1.0000  -2.0123   0.0000   0.0000   0.0000   0.3325
   5.600   0.8376   0.05270   0.04135  -0.0703  0.5385  1.0000  -2.0569   0.0000   0.0000   0.0000   0.3307
   5.700   0.8442   0.05402   0.04274  -0.0696  0.5241  1.0000  -2.1012   0.0000   0.0000   0.0000   0.3291
   5.800   0.8507   0.05541   0.04422  -0.0689  0.5108  1.0000  -2.1432   0.0000   0.0000   0.0000   0.3276
   5.900   0.8569   0.05673   0.04561  -0.0680  0.4968  1.0000  -2.1858   0.0000   0.0000   0.0000   0.3260
   6.000   0.8629   0.05807   0.04702  -0.0672  0.4833  1.0000  -2.2290   0.0000   0.0000   0.0000   0.3244
   6.100   0.8696   0.05955   0.04857  -0.0665  0.4719  1.0000  -2.2794   0.0000   0.0000   0.0000   0.3230
   6.200   0.8780   0.06094   0.05004  -0.0656  0.4609  1.0000  -2.3412   0.0000   0.0000   0.0000   0.3211
   6.300   0.8767   0.06345   0.05263  -0.0673  0.4565  1.0000  -2.3218   0.0000   0.0000   0.0000   0.3232
   6.400   0.8830   0.06486   0.05410  -0.0664  0.4448  1.0000  -2.3724   0.0000   0.0000   0.0000   0.3216
   6.500   0.8894   0.06618   0.05560  -0.0653  0.4323  1.0000  -2.4252   0.0000   0.0000   0.0000   0.3197
   6.600   0.8879   0.06863   0.05811  -0.0668  0.4285  1.0000  -2.4066   0.0000   0.0000   0.0000   0.3215
   6.700   0.8965   0.07015   0.05969  -0.0658  0.4193  1.0000  -2.4646   0.0000   0.0000   0.0000   0.3196
   6.800   0.8955   0.07277   0.06235  -0.0676  0.4185  1.0000  -2.4439   0.0000   0.0000   0.0000   0.3216
   6.900   0.8945   0.07533   0.06495  -0.0692  0.4181  1.0000  -2.4249   0.0000   0.0000   0.0000   0.3235
   7.000   0.8934   0.07785   0.06749  -0.0708  0.4177  1.0000  -2.4063   0.0000   0.0000   0.0000   0.3253
   7.100   0.8919   0.08031   0.06997  -0.0723  0.4173  1.0000  -2.3876   0.0000   0.0000   0.0000   0.3270
   7.200   0.8902   0.08273   0.07239  -0.0737  0.4170  1.0000  -2.3690   0.0000   0.0000   0.0000   0.3287
   7.300   0.8884   0.08510   0.07475  -0.0751  0.4166  1.0000  -2.3508   0.0000   0.0000   0.0000   0.3304
   7.400   0.8865   0.08742   0.07707  -0.0764  0.4162  1.0000  -2.3331   0.0000   0.0000   0.0000   0.3320
   7.500   0.8845   0.08970   0.07934  -0.0776  0.4159  1.0000  -2.3158   0.0000   0.0000   0.0000   0.3335
   7.600   0.8826   0.09194   0.08157  -0.0788  0.4157  1.0000  -2.2994   0.0000   0.0000   0.0000   0.3350
   7.700   0.8802   0.09411   0.08372  -0.0798  0.4158  1.0000  -2.2829   0.0000   0.0000   0.0000   0.3364
   7.800   0.8781   0.09624   0.08584  -0.0808  0.4161  1.0000  -2.2680   0.0000   0.0000   0.0000   0.3376
   7.900   0.8766   0.09840   0.08798  -0.0817  0.4167  1.0000  -2.2554   0.0000   0.0000   0.0000   0.3388
   8.000   0.8763   0.10061   0.09019  -0.0826  0.4178  1.0000  -2.2470   0.0000   0.0000   0.0000   0.3398
   8.100   0.8785   0.10303   0.09264  -0.0837  0.4207  1.0000  -2.2461   0.0000   0.0000   0.0000   0.3407
   8.200   0.8688   0.10533   0.09484  -0.0860  0.4320  1.0000  -2.1840   0.0000   0.0000   0.0000   0.3443
   8.300   0.8614   0.10766   0.09710  -0.0882  0.4449  1.0000  -2.1322   0.0000   0.0000   0.0000   0.3477
   8.400   0.8580   0.11024   0.09954  -0.0905  0.4599  1.0000  -2.0964   0.0000   0.0000   0.0000   0.3507
   8.500   0.8368   0.11262   0.10176  -0.0956  0.5070  1.0000  -1.9597   0.0000   0.0000   0.0000   0.3593
   8.600   0.6251   0.09827   0.08595  -0.0881  0.9969  1.0000  -1.2514   0.0000   0.0000   0.0000   0.3851
   8.700   0.6350   0.10085   0.08860  -0.0904  0.9940  1.0000  -1.2723   0.0000   0.0000   0.0000   0.3865
   8.800   0.6640   0.10612   0.09409  -0.0975  0.9686  1.0000  -1.3325   0.0000   0.0000   0.0000   0.3910
   8.900   0.6803   0.10938   0.09750  -0.1012  0.9391  1.0000  -1.3718   0.0000   0.0000   0.0000   0.3927
   9.000   0.6892   0.11169   0.09990  -0.1028  0.9211  1.0000  -1.3960   0.0000   0.0000   0.0000   0.3932
   9.100   0.7017   0.11486   0.10315  -0.1054  0.9134  1.0000  -1.4269   0.0000   0.0000   0.0000   0.3941
   9.200   0.7087   0.11702   0.10539  -0.1066  0.9015  1.0000  -1.4461   0.0000   0.0000   0.0000   0.3942
   9.300   0.7154   0.11915   0.10759  -0.1076  0.8884  1.0000  -1.4643   0.0000   0.0000   0.0000   0.3942
   9.400   0.7250   0.12178   0.11029  -0.1090  0.8716  1.0000  -1.4886   0.0000   0.0000   0.0000   0.3941
   9.500   0.7404   0.12518   0.11380  -0.1111  0.8453  1.0000  -1.5255   0.0000   0.0000   0.0000   0.3938
   9.600   0.7416   0.12625   0.11491  -0.1104  0.8259  1.0000  -1.5330   0.0000   0.0000   0.0000   0.3926
   9.700   0.7588   0.13015   0.11892  -0.1127  0.8039  1.0000  -1.5787   0.0000   0.0000   0.0000   0.3922
   9.800   0.7630   0.13191   0.12073  -0.1128  0.7917  1.0000  -1.5964   0.0000   0.0000   0.0000   0.3915
   9.900   0.7635   0.13307   0.12191  -0.1124  0.7810  1.0000  -1.6044   0.0000   0.0000   0.0000   0.3907
  10.000   0.7672   0.13489   0.12376  -0.1126  0.7711  1.0000  -1.6195   0.0000   0.0000   0.0000   0.3902
  10.100   0.7755   0.13755   0.12648  -0.1135  0.7610  1.0000  -1.6451   0.0000   0.0000   0.0000   0.3898
  10.200   0.7858   0.14058   0.12958  -0.1147  0.7493  1.0000  -1.6752   0.0000   0.0000   0.0000   0.3893
  10.300   0.7905   0.14246   0.13150  -0.1147  0.7362  1.0000  -1.6921   0.0000   0.0000   0.0000   0.3885
  10.400   0.7964   0.14463   0.13370  -0.1149  0.7216  1.0000  -1.7119   0.0000   0.0000   0.0000   0.3875
  10.500   0.7992   0.14613   0.13523  -0.1145  0.7069  1.0000  -1.7244   0.0000   0.0000   0.0000   0.3864
  10.600   0.8020   0.14760   0.13673  -0.1140  0.6917  1.0000  -1.7366   0.0000   0.0000   0.0000   0.3853
  10.700   0.8058   0.14928   0.13843  -0.1137  0.6763  1.0000  -1.7508   0.0000   0.0000   0.0000   0.3842
  10.800   0.8109   0.15129   0.14058  -0.1137  0.6628  1.0000  -1.7650   0.0000   0.0000   0.0000   0.3833
  10.900   0.8202   0.15429   0.14364  -0.1144  0.6522  1.0000  -1.7878   0.0000   0.0000   0.0000   0.3825
  11.000   0.8207   0.15535   0.14472  -0.1140  0.6426  1.0000  -1.7912   0.0000   0.0000   0.0000   0.3819
  11.100   0.8223   0.15686   0.14623  -0.1139  0.6353  1.0000  -1.7955   0.0000   0.0000   0.0000   0.3814
  11.200   0.8339   0.16044   0.14987  -0.1149  0.6255  1.0000  -1.8208   0.0000   0.0000   0.0000   0.3806
  11.300   0.8291   0.16035   0.14977  -0.1140  0.6178  1.0000  -1.8114   0.0000   0.0000   0.0000   0.3802
  11.400   0.8361   0.16303   0.15249  -0.1145  0.6102  1.0000  -1.8254   0.0000   0.0000   0.0000   0.3796
  11.500   0.8397   0.16474   0.15423  -0.1145  0.6008  1.0000  -1.8330   0.0000   0.0000   0.0000   0.3790
  11.600   0.8397   0.16586   0.15534  -0.1142  0.5938  1.0000  -1.8320   0.0000   0.0000   0.0000   0.3786
  11.700   0.8481   0.16879   0.15831  -0.1147  0.5833  1.0000  -1.8483   0.0000   0.0000   0.0000   0.3777
  11.800   0.8559   0.17151   0.16106  -0.1148  0.5706  1.0000  -1.8636   0.0000   0.0000   0.0000   0.3766
  11.900   0.8510   0.17117   0.16071  -0.1141  0.5628  1.0000  -1.8526   0.0000   0.0000   0.0000   0.3764
  12.000   0.8548   0.17302   0.16257  -0.1140  0.5523  1.0000  -1.8590   0.0000   0.0000   0.0000   0.3756
  12.100   0.8609   0.17539   0.16496  -0.1140  0.5409  1.0000  -1.8696   0.0000   0.0000   0.0000   0.3747
  12.200   0.8695   0.17839   0.16800  -0.1142  0.5291  1.0000  -1.8842   0.0000   0.0000   0.0000   0.3735
  12.300   0.8654   0.17818   0.16778  -0.1137  0.5223  1.0000  -1.8732   0.0000   0.0000   0.0000   0.3735
  12.400   0.8744   0.18149   0.17112  -0.1142  0.5150  1.0000  -1.8853   0.0000   0.0000   0.0000   0.3727
  12.500   0.8717   0.18160   0.17121  -0.1140  0.5085  1.0000  -1.8760   0.0000   0.0000   0.0000   0.3727
  12.600   0.8819   0.18532   0.17497  -0.1146  0.5017  1.0000  -1.8891   0.0000   0.0000   0.0000   0.3718
  12.700   0.8776   0.18496   0.17459  -0.1143  0.4962  1.0000  -1.8761   0.0000   0.0000   0.0000   0.3721
  12.800   0.8902   0.18939   0.17907  -0.1149  0.4885  1.0000  -1.8926   0.0000   0.0000   0.0000   0.3709
  12.900   0.8843   0.18854   0.17818  -0.1147  0.4842  1.0000  -1.8760   0.0000   0.0000   0.0000   0.3714
  13.000   0.8922   0.19146   0.18115  -0.1150  0.4765  1.0000  -1.8838   0.0000   0.0000   0.0000   0.3705
  13.100   0.8925   0.19250   0.18217  -0.1152  0.4724  1.0000  -1.8768   0.0000   0.0000   0.0000   0.3706
  13.200   0.8939   0.19353   0.18320  -0.1153  0.4657  1.0000  -1.8728   0.0000   0.0000   0.0000   0.3704
  13.300   0.9011   0.19658   0.18627  -0.1157  0.4599  1.0000  -1.8774   0.0000   0.0000   0.0000   0.3697
  13.400   0.8992   0.19657   0.18625  -0.1157  0.4538  1.0000  -1.8672   0.0000   0.0000   0.0000   0.3699
  13.500   0.9079   0.20007   0.18977  -0.1160  0.4464  1.0000  -1.8747   0.0000   0.0000   0.0000   0.3689
  13.600   0.9054   0.19981   0.18950  -0.1160  0.4405  1.0000  -1.8630   0.0000   0.0000   0.0000   0.3692
  13.700   0.9138   0.20321   0.19292  -0.1162  0.4325  1.0000  -1.8775   0.0000   0.0000   0.0000   0.3682
  13.800   0.9119   0.20305   0.19275  -0.1163  0.4263  1.0000  -1.8711   0.0000   0.0000   0.0000   0.3685
  13.900   0.9200   0.20638   0.19609  -0.1165  0.4187  1.0000  -1.8908   0.0000   0.0000   0.0000   0.3675
  14.000   0.9182   0.20624   0.19594  -0.1167  0.4129  1.0000  -1.8840   0.0000   0.0000   0.0000   0.3678
  14.100   0.9278   0.21017   0.19989  -0.1169  0.4056  1.0000  -1.9072   0.0000   0.0000   0.0000   0.3667
  14.200   0.9247   0.20953   0.19923  -0.1172  0.4013  1.0000  -1.8953   0.0000   0.0000   0.0000   0.3673
  14.300   0.9326   0.21268   0.20242  -0.1174  0.3943  1.0000  -1.9136   0.0000   0.0000   0.0000   0.3664
  14.400   0.9350   0.21428   0.20400  -0.1178  0.3912  1.0000  -1.9146   0.0000   0.0000   0.0000   0.3664
  14.500   0.9336   0.21415   0.20386  -0.1182  0.3868  1.0000  -1.9066   0.0000   0.0000   0.0000   0.3669
  14.600   0.9410   0.21718   0.20703  -0.1185  0.3809  1.0000  -1.9208   0.0000   0.0000   0.0000   0.3661
  14.700   0.9447   0.21928   0.20911  -0.1189  0.3778  1.0000  -1.9242   0.0000   0.0000   0.0000   0.3660
  14.800   0.9430   0.21892   0.20874  -0.1194  0.3739  1.0000  -1.9142   0.0000   0.0000   0.0000   0.3666
  14.900   0.9481   0.22110   0.21094  -0.1197  0.3685  1.0000  -1.9231   0.0000   0.0000   0.0000   0.3662
  15.000   0.9557   0.22474   0.21459  -0.1201  0.3647  1.0000  -1.9368   0.0000   0.0000   0.0000   0.3655
  15.100   0.9531   0.22393   0.21375  -0.1207  0.3617  1.0000  -1.9234   0.0000   0.0000   0.0000   0.3663
  15.200   0.9557   0.22510   0.21493  -0.1211  0.3567  1.0000  -1.9248   0.0000   0.0000   0.0000   0.3663
  15.300   0.9673   0.23047   0.22033  -0.1212  0.3515  1.0000  -1.9500   0.0000   0.0000   0.0000   0.3648
  15.400   0.9641   0.22925   0.21908  -0.1220  0.3494  1.0000  -1.9338   0.0000   0.0000   0.0000   0.3659
  15.500   0.9646   0.22950   0.21932  -0.1225  0.3449  1.0000  -1.9286   0.0000   0.0000   0.0000   0.3663
  15.600   0.9749   0.23421   0.22409  -0.1225  0.3386  1.0000  -1.9519   0.0000   0.0000   0.0000   0.3649
  15.700   0.9746   0.23430   0.22414  -0.1232  0.3363  1.0000  -1.9426   0.0000   0.0000   0.0000   0.3655
  15.800   0.9741   0.23405   0.22387  -0.1239  0.3322  1.0000  -1.9340   0.0000   0.0000   0.0000   0.3661
  15.900   0.9819   0.23751   0.22737  -0.1239  0.3259  1.0000  -1.9503   0.0000   0.0000   0.0000   0.3651
  16.000   0.9848   0.23916   0.22900  -0.1245  0.3230  1.0000  -1.9497   0.0000   0.0000   0.0000   0.3652
  16.100   0.9839   0.23862   0.22844  -0.1253  0.3194  1.0000  -1.9390   0.0000   0.0000   0.0000   0.3660
  16.200   0.9892   0.24088   0.23073  -0.1255  0.3135  1.0000  -1.9477   0.0000   0.0000   0.0000   0.3654
  16.300   0.9956   0.24431   0.23415  -0.1258  0.3098  1.0000  -1.9576   0.0000   0.0000   0.0000   0.3648
  16.400   0.9942   0.24340   0.23322  -0.1267  0.3070  1.0000  -1.9441   0.0000   0.0000   0.0000   0.3658
  16.500   0.9968   0.24441   0.23424  -0.1272  0.3022  1.0000  -1.9438   0.0000   0.0000   0.0000   0.3658
  16.600   1.0085   0.25066   0.24052  -0.1270  0.2970  1.0000  -1.9708   0.0000   0.0000   0.0000   0.3640
  16.700   1.0065   0.24934   0.23917  -0.1280  0.2956  1.0000  -1.9540   0.0000   0.0000   0.0000   0.3652
  16.800   1.0064   0.24895   0.23877  -0.1289  0.2926  1.0000  -1.9435   0.0000   0.0000   0.0000   0.3660
  16.900   1.0096   0.25023   0.24005  -0.1295  0.2886  1.0000  -1.9436   0.0000   0.0000   0.0000   0.3660
  17.000   1.0174   0.25424   0.24410  -0.1296  0.2845  1.0000  -1.9584   0.0000   0.0000   0.0000   0.3650
  17.100   1.0212   0.25637   0.24621  -0.1302  0.2827  1.0000  -1.9582   0.0000   0.0000   0.0000   0.3650
  17.200   1.0205   0.25550   0.24532  -0.1312  0.2806  1.0000  -1.9444   0.0000   0.0000   0.0000   0.3660
  17.300   1.0221   0.25588   0.24570  -0.1320  0.2773  1.0000  -1.9383   0.0000   0.0000   0.0000   0.3664
  17.400   1.0265   0.25782   0.24765  -0.1325  0.2736  1.0000  -1.9418   0.0000   0.0000   0.0000   0.3662
  17.500   1.0360   0.26342   0.25331  -0.1324  0.2700  1.0000  -1.9616   0.0000   0.0000   0.0000   0.3648
  17.600   1.0364   0.26324   0.25307  -0.1334  0.2688  1.0000  -1.9500   0.0000   0.0000   0.0000   0.3656
  17.700   1.0363   0.26251   0.25233  -0.1345  0.2667  1.0000  -1.9370   0.0000   0.0000   0.0000   0.3665
  17.800   1.0383   0.26301   0.25283  -0.1353  0.2636  1.0000  -1.9313   0.0000   0.0000   0.0000   0.3669
  17.900   1.0425   0.26491   0.25474  -0.1358  0.2601  1.0000  -1.9341   0.0000   0.0000   0.0000   0.3667
  18.000   1.0513   0.27019   0.26007  -0.1357  0.2566  1.0000  -1.9520   0.0000   0.0000   0.0000   0.3655
  18.100   1.0528   0.27070   0.26054  -0.1366  0.2553  1.0000  -1.9433   0.0000   0.0000   0.0000   0.3660
  18.200   1.0528   0.26981   0.25964  -0.1378  0.2535  1.0000  -1.9295   0.0000   0.0000   0.0000   0.3670
  18.300   1.0546   0.27009   0.25991  -0.1387  0.2505  1.0000  -1.9224   0.0000   0.0000   0.0000   0.3675
  18.400   1.0585   0.27174   0.26158  -0.1393  0.2470  1.0000  -1.9237   0.0000   0.0000   0.0000   0.3674
  18.500   1.0665   0.27666   0.26654  -0.1391  0.2433  1.0000  -1.9404   0.0000   0.0000   0.0000   0.3662
  18.600   1.0693   0.27807   0.26791  -0.1400  0.2418  1.0000  -1.9355   0.0000   0.0000   0.0000   0.3665
  18.700   1.0694   0.27702   0.26685  -0.1412  0.2402  1.0000  -1.9209   0.0000   0.0000   0.0000   0.3675
  18.800   1.0710   0.27707   0.26690  -0.1422  0.2374  1.0000  -1.9126   0.0000   0.0000   0.0000   0.3681
  18.900   1.0746   0.27850   0.26833  -0.1428  0.2339  1.0000  -1.9126   0.0000   0.0000   0.0000   0.3681
  19.000   1.0817   0.28284   0.27283  -0.1428  0.2301  1.0000  -1.9268   0.0000   0.0000   0.0000   0.3670
  19.100   1.0859   0.28541   0.27538  -0.1434  0.2284  1.0000  -1.9272   0.0000   0.0000   0.0000   0.3670
  19.200   1.0861   0.28423   0.27419  -0.1447  0.2270  1.0000  -1.9119   0.0000   0.0000   0.0000   0.3680
  19.300   1.0875   0.28404   0.27399  -0.1458  0.2245  1.0000  -1.9021   0.0000   0.0000   0.0000   0.3687
  19.400   1.0907   0.28511   0.27506  -0.1466  0.2213  1.0000  -1.8997   0.0000   0.0000   0.0000   0.3688
  19.500   1.0959   0.28792   0.27790  -0.1468  0.2179  1.0000  -1.9071   0.0000   0.0000   0.0000   0.3683
  19.600   1.1038   0.29386   0.28385  -0.1467  0.2152  1.0000  -1.9237   0.0000   0.0000   0.0000   0.3671
  19.700   1.1039   0.29240   0.28237  -0.1481  0.2144  1.0000  -1.9072   0.0000   0.0000   0.0000   0.3682
  19.800   1.1048   0.29168   0.28164  -0.1494  0.2127  1.0000  -1.8939   0.0000   0.0000   0.0000   0.3691
  19.900   1.1070   0.29191   0.28187  -0.1504  0.2103  1.0000  -1.8862   0.0000   0.0000   0.0000   0.3696
  20.000   1.1103   0.29315   0.28312  -0.1511  0.2075  1.0000  -1.8844   0.0000   0.0000   0.0000   0.3697
  20.100   1.1150   0.29564   0.28563  -0.1515  0.2047  1.0000  -1.8895   0.0000   0.0000   0.0000   0.3693
  20.200   1.1227   0.30163   0.29167  -0.1513  0.2022  1.0000  -1.9074   0.0000   0.0000   0.0000   0.3681
  20.300   1.1248   0.30206   0.29206  -0.1524  0.2014  1.0000  -1.8980   0.0000   0.0000   0.0000   0.3687
  20.400   1.1257   0.30101   0.29100  -0.1538  0.2004  1.0000  -1.8834   0.0000   0.0000   0.0000   0.3696
  20.500   1.1273   0.30066   0.29064  -0.1550  0.1987  1.0000  -1.8722   0.0000   0.0000   0.0000   0.3703
  20.600   1.1297   0.30114   0.29112  -0.1560  0.1966  1.0000  -1.8656   0.0000   0.0000   0.0000   0.3707
  20.700   1.1331   0.30237   0.29236  -0.1568  0.1942  1.0000  -1.8635   0.0000   0.0000   0.0000   0.3709
  20.800   1.1372   0.30444   0.29445  -0.1574  0.1919  1.0000  -1.8662   0.0000   0.0000   0.0000   0.3707
  20.900   1.1430   0.30839   0.29843  -0.1575  0.1896  1.0000  -1.8769   0.0000   0.0000   0.0000   0.3700
  21.000   1.1487   0.31304   0.30307  -0.1577  0.1882  1.0000  -1.8854   0.0000   0.0000   0.0000   0.3694
  21.100   1.1496   0.31173   0.30175  -0.1592  0.1875  1.0000  -1.8760   0.0000   0.0000   0.0000   0.3704
  21.200   1.1510   0.31098   0.30099  -0.1605  0.1865  1.0000  -1.8700   0.0000   0.0000   0.0000   0.3712
  21.300   1.1530   0.31089   0.30090  -0.1617  0.1848  1.0000  -1.8681   0.0000   0.0000   0.0000   0.3718
  21.400   1.1557   0.31152   0.30154  -0.1628  0.1829  1.0000  -1.8711   0.0000   0.0000   0.0000   0.3722
  21.500   1.1590   0.31277   0.30279  -0.1636  0.1808  1.0000  -1.8783   0.0000   0.0000   0.0000   0.3723
  21.600   1.1630   0.31470   0.30474  -0.1642  0.1786  1.0000  -1.8904   0.0000   0.0000   0.0000   0.3722
  21.700   1.1679   0.31800   0.30807  -0.1645  0.1766  1.0000  -1.9098   0.0000   0.0000   0.0000   0.3717
  21.800   1.1750   0.32481   0.31488  -0.1642  0.1749  1.0000  -1.9415   0.0000   0.0000   0.0000   0.3706
  21.900   1.1760   0.32338   0.31344  -0.1657  0.1744  1.0000  -1.9318   0.0000   0.0000   0.0000   0.3715
  22.000   1.1774   0.32234   0.31239  -0.1672  0.1736  1.0000  -1.9240   0.0000   0.0000   0.0000   0.3724
  22.100   1.1793   0.32187   0.31192  -0.1685  0.1724  1.0000  -1.9193   0.0000   0.0000   0.0000   0.3731
  22.200   1.1817   0.32208   0.31214  -0.1696  0.1707  1.0000  -1.9188   0.0000   0.0000   0.0000   0.3736
  22.300   1.1846   0.32292   0.31298  -0.1706  0.1687  1.0000  -1.9225   0.0000   0.0000   0.0000   0.3738
  22.400   1.1881   0.32432   0.31439  -0.1714  0.1667  1.0000  -1.9302   0.0000   0.0000   0.0000   0.3739
  22.500   1.1921   0.32649   0.31658  -0.1720  0.1646  1.0000  -1.9431   0.0000   0.0000   0.0000   0.3738
  22.600   1.1973   0.33058   0.32070  -0.1721  0.1626  1.0000  -1.9653   0.0000   0.0000   0.0000   0.3731
  22.700   1.2027   0.33589   0.32600  -0.1722  0.1613  1.0000  -1.9869   0.0000   0.0000   0.0000   0.3724
  22.800   1.2040   0.33438   0.32449  -0.1738  0.1608  1.0000  -1.9767   0.0000   0.0000   0.0000   0.3733
  22.900   1.2056   0.33337   0.32347  -0.1752  0.1600  1.0000  -1.9686   0.0000   0.0000   0.0000   0.3741
  23.000   1.2077   0.33296   0.32306  -0.1766  0.1588  1.0000  -1.9636   0.0000   0.0000   0.0000   0.3748
  23.100   1.2102   0.33323   0.32334  -0.1777  0.1571  1.0000  -1.9628   0.0000   0.0000   0.0000   0.3753
  23.200   1.2132   0.33409   0.32420  -0.1787  0.1552  1.0000  -1.9659   0.0000   0.0000   0.0000   0.3755
  23.300   1.2165   0.33545   0.32558  -0.1795  0.1533  1.0000  -1.9728   0.0000   0.0000   0.0000   0.3756
  23.400   1.2204   0.33752   0.32778  -0.1801  0.1514  1.0000  -1.9843   0.0000   0.0000   0.0000   0.3755
  23.500   1.2251   0.34122   0.33151  -0.1804  0.1495  1.0000  -2.0041   0.0000   0.0000   0.0000   0.3749
  23.600   1.2310   0.34807   0.33836  -0.1801  0.1480  1.0000  -2.0322   0.0000   0.0000   0.0000   0.3739
  23.700   1.2324   0.34648   0.33677  -0.1817  0.1476  1.0000  -2.0211   0.0000   0.0000   0.0000   0.3748
  23.800   1.2342   0.34526   0.33554  -0.1832  0.1470  1.0000  -2.0117   0.0000   0.0000   0.0000   0.3756
  23.900   1.2362   0.34467   0.33495  -0.1846  0.1461  1.0000  -2.0047   0.0000   0.0000   0.0000   0.3763
  24.000   1.2386   0.34464   0.33492  -0.1859  0.1447  1.0000  -2.0011   0.0000   0.0000   0.0000   0.3768
  24.100   1.2413   0.34517   0.33546  -0.1870  0.1432  1.0000  -2.0011   0.0000   0.0000   0.0000   0.3772
  24.200   1.2443   0.34616   0.33646  -0.1880  0.1415  1.0000  -2.0041   0.0000   0.0000   0.0000   0.3774
  24.300   1.2476   0.34755   0.33786  -0.1888  0.1398  1.0000  -2.0102   0.0000   0.0000   0.0000   0.3775
  24.400   1.2512   0.34950   0.33983  -0.1895  0.1381  1.0000  -2.0199   0.0000   0.0000   0.0000   0.3774
  24.500   1.2553   0.35259   0.34296  -0.1899  0.1365  1.0000  -2.0353   0.0000   0.0000   0.0000   0.3770
  24.600   1.2607   0.35899   0.34940  -0.1897  0.1351  1.0000  -2.0625   0.0000   0.0000   0.0000   0.3761
  24.700   1.2637   0.36045   0.35082  -0.1907  0.1345  1.0000  -2.0630   0.0000   0.0000   0.0000   0.3764
  24.800   1.2654   0.35916   0.34953  -0.1922  0.1341  1.0000  -2.0525   0.0000   0.0000   0.0000   0.3771
  24.900   1.2674   0.35820   0.34857  -0.1937  0.1336  1.0000  -2.0436   0.0000   0.0000   0.0000   0.3778
  25.000   1.2697   0.35784   0.34821  -0.1951  0.1328  1.0000  -2.0367   0.0000   0.0000   0.0000   0.3784
  25.100   1.2722   0.35789   0.34827  -0.1963  0.1317  1.0000  -2.0324   0.0000   0.0000   0.0000   0.3789
  25.200   1.2749   0.35839   0.34877  -0.1975  0.1305  1.0000  -2.0307   0.0000   0.0000   0.0000   0.3792
  25.300   1.2777   0.35921   0.34961  -0.1986  0.1292  1.0000  -2.0311   0.0000   0.0000   0.0000   0.3795
  25.400   1.2808   0.36030   0.35071  -0.1995  0.1279  1.0000  -2.0334   0.0000   0.0000   0.0000   0.3797
  25.500   1.2839   0.36164   0.35208  -0.2004  0.1266  1.0000  -2.0376   0.0000   0.0000   0.0000   0.3798
  25.600   1.2872   0.36333   0.35378  -0.2012  0.1253  1.0000  -2.0441   0.0000   0.0000   0.0000   0.3798
  25.700   1.2907   0.36560   0.35607  -0.2018  0.1240  1.0000  -2.0537   0.0000   0.0000   0.0000   0.3796
  25.800   1.2946   0.36907   0.35957  -0.2022  0.1228  1.0000  -2.0684   0.0000   0.0000   0.0000   0.3793
  25.900   1.2995   0.37573   0.36628  -0.2021  0.1217  1.0000  -2.0927   0.0000   0.0000   0.0000   0.3785
  26.000   1.3021   0.37663   0.36714  -0.2032  0.1213  1.0000  -2.0899   0.0000   0.0000   0.0000   0.3788
  26.100   1.3041   0.37539   0.36589  -0.2047  0.1210  1.0000  -2.0789   0.0000   0.0000   0.0000   0.3795
  26.200   1.3061   0.37447   0.36498  -0.2062  0.1206  1.0000  -2.0692   0.0000   0.0000   0.0000   0.3801
  26.300   1.3084   0.37391   0.36443  -0.2076  0.1201  1.0000  -2.0608   0.0000   0.0000   0.0000   0.3807
  26.400   1.3108   0.37374   0.36426  -0.2089  0.1193  1.0000  -2.0542   0.0000   0.0000   0.0000   0.3812
  26.500   1.3133   0.37395   0.36448  -0.2102  0.1184  1.0000  -2.0496   0.0000   0.0000   0.0000   0.3816
  26.600   1.3160   0.37448   0.36502  -0.2114  0.1174  1.0000  -2.0470   0.0000   0.0000   0.0000   0.3819
  26.700   1.3188   0.37527   0.36582  -0.2124  0.1163  1.0000  -2.0459   0.0000   0.0000   0.0000   0.3821
  26.800   1.3216   0.37626   0.36682  -0.2135  0.1152  1.0000  -2.0463   0.0000   0.0000   0.0000   0.3823
  26.900   1.3245   0.37743   0.36802  -0.2144  0.1140  1.0000  -2.0482   0.0000   0.0000   0.0000   0.3825
  27.000   1.3275   0.37881   0.36942  -0.2153  0.1129  1.0000  -2.0516   0.0000   0.0000   0.0000   0.3826
  27.100   1.3306   0.38049   0.37112  -0.2161  0.1118  1.0000  -2.0569   0.0000   0.0000   0.0000   0.3826
  27.200   1.3338   0.38269   0.37334  -0.2168  0.1107  1.0000  -2.0648   0.0000   0.0000   0.0000   0.3825
  27.300   1.3373   0.38587   0.37663  -0.2173  0.1097  1.0000  -2.0768   0.0000   0.0000   0.0000   0.3822
  27.400   1.3413   0.39147   0.38227  -0.2174  0.1088  1.0000  -2.0961   0.0000   0.0000   0.0000   0.3816
  27.500   1.3447   0.39546   0.38623  -0.2179  0.1083  1.0000  -2.1041   0.0000   0.0000   0.0000   0.3814
  27.600   1.3467   0.39403   0.38480  -0.2195  0.1080  1.0000  -2.0922   0.0000   0.0000   0.0000   0.3821
  27.700   1.3487   0.39293   0.38370  -0.2210  0.1078  1.0000  -2.0812   0.0000   0.0000   0.0000   0.3827
  27.800   1.3509   0.39212   0.38291  -0.2224  0.1074  1.0000  -2.0713   0.0000   0.0000   0.0000   0.3832
  27.900   1.3532   0.39165   0.38244  -0.2238  0.1069  1.0000  -2.0627   0.0000   0.0000   0.0000   0.3837
  28.000   1.3555   0.39151   0.38232  -0.2252  0.1063  1.0000  -2.0556   0.0000   0.0000   0.0000   0.3842
  28.100   1.3580   0.39170   0.38251  -0.2264  0.1055  1.0000  -2.0502   0.0000   0.0000   0.0000   0.3845
  28.200   1.3606   0.39217   0.38299  -0.2276  0.1046  1.0000  -2.0464   0.0000   0.0000   0.0000   0.3848
  28.300   1.3632   0.39285   0.38370  -0.2288  0.1037  1.0000  -2.0441   0.0000   0.0000   0.0000   0.3851
  28.400   1.3658   0.39372   0.38457  -0.2299  0.1027  1.0000  -2.0430   0.0000   0.0000   0.0000   0.3853
  28.500   1.3685   0.39473   0.38560  -0.2309  0.1017  1.0000  -2.0432   0.0000   0.0000   0.0000   0.3855
  28.600   1.3712   0.39589   0.38678  -0.2319  0.1007  1.0000  -2.0446   0.0000   0.0000   0.0000   0.3856
  28.700   1.3739   0.39723   0.38815  -0.2328  0.0997  1.0000  -2.0474   0.0000   0.0000   0.0000   0.3857
  28.800   1.3767   0.39884   0.38978  -0.2336  0.0987  1.0000  -2.0521   0.0000   0.0000   0.0000   0.3857
  28.900   1.3796   0.40093   0.39190  -0.2343  0.0977  1.0000  -2.0592   0.0000   0.0000   0.0000   0.3856
  29.000   1.3827   0.40392   0.39491  -0.2349  0.0967  1.0000  -2.0702   0.0000   0.0000   0.0000   0.3854
  29.100   1.3861   0.40908   0.40012  -0.2351  0.0959  1.0000  -2.0880   0.0000   0.0000   0.0000   0.3849


