xflr5 v6.61

 Calculated polar for: AG14

 1 1 Reynolds number fixed          Mach number fixed         

 xtrf =   1.000 (top)        1.000 (bottom)
 Mach =   0.000     Re =     0.100 e 6     Ncrit =   9.000

  alpha     CL        CD       CDp       Cm    Top Xtr Bot Xtr   Cpmin    Chinge    XCp    
 ------- -------- --------- --------- -------- ------- ------- -------- --------- ---------
   0.000   0.1851   0.01003   0.00287  -0.0409  1.0000  1.0000  -0.3941   0.0000   0.0000   0.0000   0.4701
   0.500   0.2361   0.01031   0.00305  -0.0406  1.0000  1.0000  -0.4592   0.0000   0.0000   0.0000   0.4211
   1.000   0.2863   0.01078   0.00352  -0.0408  1.0000  1.0000  -0.5326   0.0000   0.0000   0.0000   0.3914
   1.500   0.3824   0.01122   0.00406  -0.0501  0.9689  1.0000  -0.6635   0.0000   0.0000   0.0000   0.3796
   2.000   0.4770   0.01109   0.00409  -0.0561  0.8903  1.0000  -0.8290   0.0000   0.0000   0.0000   0.3660
   2.500   0.5313   0.01128   0.00411  -0.0529  0.7866  1.0000  -0.9716   0.0000   0.0000   0.0000   0.3478
   3.000   0.5774   0.01192   0.00442  -0.0488  0.6761  1.0000  -1.1240   0.0000   0.0000   0.0000   0.3325
   3.500   0.6245   0.01283   0.00489  -0.0458  0.5693  1.0000  -1.3100   0.0000   0.0000   0.0000   0.3209
   4.000   0.6730   0.01392   0.00558  -0.0437  0.4680  1.0000  -1.5402   0.0000   0.0000   0.0000   0.3121
   4.500   0.7218   0.01518   0.00655  -0.0421  0.3732  1.0000  -1.8493   0.0000   0.0000   0.0000   0.3051
   5.000   0.7704   0.01669   0.00773  -0.0407  0.2854  1.0000  -2.3444   0.0000   0.0000   0.0000   0.2992
   5.500   0.8190   0.01856   0.00944  -0.0395  0.2105  1.0000  -2.9032   0.0000   0.0000   0.0000   0.2941
   6.000   0.8674   0.02082   0.01160  -0.0382  0.1535  1.0000  -3.4725   0.0000   0.0000   0.0000   0.2895
   6.500   0.9152   0.02363   0.01439  -0.0368  0.1108  1.0000  -4.0227   0.0000   0.0000   0.0000   0.2852
   7.000   0.9619   0.02759   0.01864  -0.0352  0.0787  1.0000  -4.4566   0.0000   0.0000   0.0000   0.2811
   7.500   1.0055   0.03280   0.02425  -0.0336  0.0578  1.0000  -4.8896   0.0000   0.0000   0.0000   0.2774
   8.000   1.0432   0.03885   0.03117  -0.0316  0.0462  1.0000  -5.2170   0.0000   0.0000   0.0000   0.2738
   8.500   1.0622   0.04984   0.04347  -0.0294  0.0448  1.0000  -5.1597   0.0000   0.0000   0.0000   0.2710
   9.000   1.0630   0.06125   0.05591  -0.0285  0.0447  1.0000  -5.0184   0.0000   0.0000   0.0000   0.2698
   9.500   1.0472   0.07305   0.06828  -0.0295  0.0452  1.0000  -4.8442   0.0000   0.0000   0.0000   0.2708
  10.500   0.7754   0.12155   0.11727  -0.0535  0.1337  1.0000  -2.2259   0.0000   0.0000   0.0000   0.3130
  11.000   0.7477   0.13085   0.12649  -0.0587  0.1273  1.0000  -2.0358   0.0000   0.0000   0.0000   0.3223
  11.500   0.7642   0.14007   0.13575  -0.0568  0.1210  1.0000  -2.1060   0.0000   0.0000   0.0000   0.3178
  12.000   0.7322   0.14667   0.14228  -0.0627  0.1154  1.0000  -1.8665   0.0000   0.0000   0.0000   0.3289
  12.500   0.7353   0.15371   0.14932  -0.0628  0.1067  1.0000  -1.8941   0.0000   0.0000   0.0000   0.3282
  13.000   0.7331   0.15884   0.15448  -0.0632  0.0969  1.0000  -1.8954   0.0000   0.0000   0.0000   0.3287
  13.500   0.7258   0.16537   0.16099  -0.0652  0.0941  1.0000  -1.8107   0.0000   0.0000   0.0000   0.3321
  14.000   0.7142   0.16965   0.16525  -0.0685  0.0876  1.0000  -1.6918   0.0000   0.0000   0.0000   0.3378
  14.500   0.7401   0.18036   0.17601  -0.0671  0.0821  1.0000  -1.8315   0.0000   0.0000   0.0000   0.3321
  15.000   0.7170   0.18189   0.17750  -0.0724  0.0790  1.0000  -1.6092   0.0000   0.0000   0.0000   0.3421


