xflr5 v6.61

 Calculated polar for: AG14

 1 1 Reynolds number fixed          Mach number fixed         

 xtrf =   1.000 (top)        1.000 (bottom)
 Mach =   0.000     Re =     0.001 e 6     Ncrit =   9.000

  alpha     CL        CD       CDp       Cm    Top Xtr Bot Xtr   Cpmin    Chinge    XCp    
 ------- -------- --------- --------- -------- ------- ------- -------- --------- ---------
   0.000   0.0605   0.15029   0.03242  -0.0255  1.0000  1.0000  -0.3360   0.0000   0.0000   0.0000   0.6721
   0.500   0.0992   0.15048   0.03151  -0.0256  1.0000  1.0000  -0.3190   0.0000   0.0000   0.0000   0.5081
   1.000   0.1380   0.15084   0.03105  -0.0255  1.0000  1.0000  -0.3569   0.0000   0.0000   0.0000   0.4343
   1.500   0.1759   0.15141   0.03118  -0.0254  1.0000  1.0000  -0.3978   0.0000   0.0000   0.0000   0.3935
   2.000   0.2123   0.15219   0.03205  -0.0253  1.0000  1.0000  -0.4416   0.0000   0.0000   0.0000   0.3680
   2.500   0.2479   0.15314   0.03340  -0.0251  1.0000  1.0000  -0.4882   0.0000   0.0000   0.0000   0.3498
   3.000   0.2820   0.15425   0.03526  -0.0248  1.0000  1.0000  -0.5375   0.0000   0.0000   0.0000   0.3364
   3.500   0.3143   0.15550   0.03761  -0.0245  1.0000  1.0000  -0.5886   0.0000   0.0000   0.0000   0.3262
   4.000   0.3445   0.15687   0.04048  -0.0243  1.0000  1.0000  -0.6422   0.0000   0.0000   0.0000   0.3184
   4.500   0.3725   0.15834   0.04372  -0.0239  1.0000  1.0000  -0.6970   0.0000   0.0000   0.0000   0.3119
   5.000   0.3975   0.15989   0.04728  -0.0235  1.0000  1.0000  -0.7493   0.0000   0.0000   0.0000   0.3065
   5.500   0.4211   0.16203   0.05152  -0.0232  1.0000  1.0000  -0.8061   0.0000   0.0000   0.0000   0.3023
   6.000   0.4426   0.16442   0.05611  -0.0231  1.0000  1.0000  -0.8586   0.0000   0.0000   0.0000   0.2992
   6.500   0.4617   0.16715   0.06112  -0.0231  1.0000  1.0000  -0.9129   0.0000   0.0000   0.0000   0.2967
   7.000   0.4787   0.17019   0.06638  -0.0232  1.0000  1.0000  -0.9659   0.0000   0.0000   0.0000   0.2948
   7.500   0.4941   0.17360   0.07191  -0.0235  1.0000  1.0000  -1.0130   0.0000   0.0000   0.0000   0.2935
   8.000   0.5077   0.17733   0.07764  -0.0239  1.0000  1.0000  -1.0669   0.0000   0.0000   0.0000   0.2928
   9.000   0.5304   0.18529   0.08939  -0.0254  1.0000  1.0000  -1.1514   0.0000   0.0000   0.0000   0.2930
   9.500   0.5398   0.18964   0.09551  -0.0264  1.0000  1.0000  -1.1931   0.0000   0.0000   0.0000   0.2938
  10.000   0.5484   0.19416   0.10171  -0.0276  1.0000  1.0000  -1.2345   0.0000   0.0000   0.0000   0.2949
  10.500   0.5563   0.19884   0.10798  -0.0290  1.0000  1.0000  -1.2698   0.0000   0.0000   0.0000   0.2964
  11.000   0.5638   0.20364   0.11430  -0.0306  1.0000  1.0000  -1.2995   0.0000   0.0000   0.0000   0.2981
  11.500   0.5716   0.20842   0.12064  -0.0321  1.0000  1.0000  -1.3351   0.0000   0.0000   0.0000   0.2998
  12.000   0.5786   0.21335   0.12696  -0.0340  1.0000  1.0000  -1.3664   0.0000   0.0000   0.0000   0.3019
  12.500   0.5854   0.21837   0.13333  -0.0359  1.0000  1.0000  -1.3936   0.0000   0.0000   0.0000   0.3042
  13.000   0.5922   0.22345   0.13972  -0.0379  1.0000  1.0000  -1.4164   0.0000   0.0000   0.0000   0.3066
  13.500   0.5990   0.22859   0.14613  -0.0401  1.0000  1.0000  -1.4417   0.0000   0.0000   0.0000   0.3090
  14.000   0.6060   0.23381   0.15258  -0.0423  1.0000  1.0000  -1.4699   0.0000   0.0000   0.0000   0.3115
  14.500   0.6131   0.23911   0.15907  -0.0445  1.0000  1.0000  -1.4944   0.0000   0.0000   0.0000   0.3140
  15.000   0.6202   0.24451   0.16561  -0.0469  1.0000  1.0000  -1.5152   0.0000   0.0000   0.0000   0.3165
  15.500   0.6279   0.24993   0.17250  -0.0491  1.0000  1.0000  -1.5340   0.0000   0.0000   0.0000   0.3188
  16.000   0.6353   0.25543   0.17906  -0.0516  1.0000  1.0000  -1.5516   0.0000   0.0000   0.0000   0.3213
  16.500   0.6427   0.26103   0.18571  -0.0541  1.0000  1.0000  -1.5732   0.0000   0.0000   0.0000   0.3238
  17.000   0.6502   0.26671   0.19245  -0.0566  1.0000  1.0000  -1.5918   0.0000   0.0000   0.0000   0.3262
  17.500   0.6576   0.27248   0.19925  -0.0591  1.0000  1.0000  -1.6073   0.0000   0.0000   0.0000   0.3286
  18.000   0.6651   0.27832   0.20612  -0.0617  1.0000  1.0000  -1.6197   0.0000   0.0000   0.0000   0.3309
  18.500   0.6726   0.28425   0.21305  -0.0642  1.0000  1.0000  -1.6290   0.0000   0.0000   0.0000   0.3332
  19.000   0.6800   0.29025   0.22004  -0.0668  1.0000  1.0000  -1.6352   0.0000   0.0000   0.0000   0.3354
  19.500   0.6875   0.29633   0.22709  -0.0694  1.0000  1.0000  -1.6385   0.0000   0.0000   0.0000   0.3376
  20.000   0.6951   0.30251   0.23482  -0.0719  1.0000  1.0000  -1.6533   0.0000   0.0000   0.0000   0.3395


