xflr5 v6.61

 Calculated polar for: AG14

 1 1 Reynolds number fixed          Mach number fixed         

 xtrf =   1.000 (top)        1.000 (bottom)
 Mach =   0.000     Re =     0.030 e 6     Ncrit =   9.000

  alpha     CL        CD       CDp       Cm    Top Xtr Bot Xtr   Cpmin    Chinge    XCp    
 ------- -------- --------- --------- -------- ------- ------- -------- --------- ---------
   0.000   0.1647   0.01801   0.00472  -0.0383  1.0000  1.0000  -0.4056   0.0000   0.0000   0.0000   0.4821
   0.500   0.2136   0.01830   0.00479  -0.0377  1.0000  1.0000  -0.4397   0.0000   0.0000   0.0000   0.4258
   1.000   0.2612   0.01874   0.00517  -0.0373  1.0000  1.0000  -0.5067   0.0000   0.0000   0.0000   0.3917
   1.500   0.3071   0.01940   0.00589  -0.0371  1.0000  1.0000  -0.5814   0.0000   0.0000   0.0000   0.3695
   2.000   0.3508   0.02042   0.00707  -0.0376  1.0000  1.0000  -0.6620   0.0000   0.0000   0.0000   0.3555
   2.500   0.3897   0.02210   0.00903  -0.0391  1.0000  1.0000  -0.7419   0.0000   0.0000   0.0000   0.3485
   3.000   0.4219   0.02485   0.01204  -0.0425  1.0000  1.0000  -0.8161   0.0000   0.0000   0.0000   0.3485
   3.500   0.6232   0.02838   0.01698  -0.0734  0.8629  1.0000  -1.1640   0.0000   0.0000   0.0000   0.3654
   4.000   0.7110   0.02884   0.01798  -0.0692  0.7232  1.0000  -1.4504   0.0000   0.0000   0.0000   0.3447
   4.500   0.7517   0.03045   0.01970  -0.0593  0.6106  1.0000  -1.6871   0.0000   0.0000   0.0000   0.3260
   5.000   0.7918   0.03303   0.02227  -0.0516  0.5058  1.0000  -2.0139   0.0000   0.0000   0.0000   0.3121
   5.500   0.8337   0.03666   0.02598  -0.0462  0.4144  1.0000  -2.3811   0.0000   0.0000   0.0000   0.3020
   6.000   0.8757   0.04163   0.03135  -0.0426  0.3427  1.0000  -2.7533   0.0000   0.0000   0.0000   0.2948
   6.500   0.9140   0.04821   0.03845  -0.0404  0.2887  1.0000  -3.0484   0.0000   0.0000   0.0000   0.2901
   7.000   0.9438   0.05660   0.04748  -0.0397  0.2499  1.0000  -3.2296   0.0000   0.0000   0.0000   0.2877
   7.500   0.9589   0.06914   0.06071  -0.0433  0.2405  1.0000  -3.1975   0.0000   0.0000   0.0000   0.2906
   8.000   0.9538   0.08360   0.07554  -0.0508  0.2435  1.0000  -3.0258   0.0000   0.0000   0.0000   0.2986
   9.000   0.8107   0.12075   0.11176  -0.1054  0.5765  1.0000  -1.7560   0.0000   0.0000   0.0000   0.3746
   9.500   0.8271   0.12950   0.12063  -0.1036  0.5231  1.0000  -1.8452   0.0000   0.0000   0.0000   0.3697
  10.000   0.8414   0.13872   0.13005  -0.1035  0.4915  1.0000  -1.8969   0.0000   0.0000   0.0000   0.3671
  10.500   0.8598   0.14836   0.13977  -0.1023  0.4467  1.0000  -1.9597   0.0000   0.0000   0.0000   0.3628
  11.000   0.8608   0.15526   0.14668  -0.1018  0.4143  1.0000  -1.9562   0.0000   0.0000   0.0000   0.3616
  11.500   0.8718   0.16403   0.15548  -0.1023  0.3891  1.0000  -1.9617   0.0000   0.0000   0.0000   0.3603
  12.000   0.8818   0.17219   0.16366  -0.1027  0.3613  1.0000  -1.9567   0.0000   0.0000   0.0000   0.3591
  12.500   0.8925   0.17995   0.17142  -0.1031  0.3298  1.0000  -1.9485   0.0000   0.0000   0.0000   0.3578
  13.000   0.9114   0.19018   0.18169  -0.1042  0.3098  1.0000  -1.9644   0.0000   0.0000   0.0000   0.3562
  13.500   0.9150   0.19600   0.18747  -0.1065  0.2922  1.0000  -1.9508   0.0000   0.0000   0.0000   0.3578
  14.000   0.9382   0.20706   0.19856  -0.1073  0.2694  1.0000  -2.0056   0.0000   0.0000   0.0000   0.3554
  14.500   0.9412   0.21150   0.20303  -0.1104  0.2523  1.0000  -1.9761   0.0000   0.0000   0.0000   0.3577
  15.000   0.9539   0.21872   0.21024  -0.1132  0.2372  1.0000  -1.9746   0.0000   0.0000   0.0000   0.3585
  15.500   0.9683   0.22633   0.21784  -0.1161  0.2244  1.0000  -1.9734   0.0000   0.0000   0.0000   0.3592
  16.000   0.9837   0.23415   0.22565  -0.1190  0.2122  1.0000  -1.9727   0.0000   0.0000   0.0000   0.3598
  16.500   0.9993   0.24180   0.23330  -0.1221  0.1994  1.0000  -1.9707   0.0000   0.0000   0.0000   0.3604
  17.000   1.0154   0.24951   0.24100  -0.1252  0.1865  1.0000  -1.9691   0.0000   0.0000   0.0000   0.3609
  17.500   1.0362   0.25999   0.25150  -0.1275  0.1745  1.0000  -1.9868   0.0000   0.0000   0.0000   0.3601
  18.000   1.0446   0.26214   0.25363  -0.1330  0.1657  1.0000  -1.9343   0.0000   0.0000   0.0000   0.3636
  18.500   1.0611   0.26995   0.26142  -0.1368  0.1589  1.0000  -1.9195   0.0000   0.0000   0.0000   0.3645
  19.000   1.0810   0.27945   0.27107  -0.1396  0.1490  1.0000  -1.9300   0.0000   0.0000   0.0000   0.3641
  19.500   1.0922   0.28276   0.27433  -0.1453  0.1436  1.0000  -1.8752   0.0000   0.0000   0.0000   0.3673
  20.000   1.1153   0.29635   0.28797  -0.1471  0.1345  1.0000  -1.9111   0.0000   0.0000   0.0000   0.3654


