xflr5 v6.61

 Calculated polar for: franky 2

 1 1 Reynolds number fixed          Mach number fixed         

 xtrf =   1.000 (top)        1.000 (bottom)
 Mach =   0.000     Re =     0.060 e 6     Ncrit =   9.000

  alpha     CL        CD       CDp       Cm    Top Xtr Bot Xtr   Cpmin    Chinge    XCp    
 ------- -------- --------- --------- -------- ------- ------- -------- --------- ---------
   0.000   0.7454   0.02571   0.01817  -0.1851  0.7895  0.6143  -0.9874   0.0000   0.0000   0.0000   0.4972
   0.500   0.8214   0.02414   0.01652  -0.1862  0.7598  0.7455  -1.0535   0.0000   0.0000   0.0000   0.4749
   1.000   0.8909   0.02314   0.01520  -0.1882  0.7300  1.0000  -1.1122   0.0000   0.0000   0.0000   0.4588
   1.500   0.9727   0.02380   0.01513  -0.1928  0.7008  1.0000  -1.1825   0.0000   0.0000   0.0000   0.4452
   2.000   1.0450   0.02468   0.01549  -0.1954  0.6750  1.0000  -1.2525   0.0000   0.0000   0.0000   0.4332
   2.500   1.0898   0.02663   0.01733  -0.1942  0.6521  1.0000  -1.3017   0.0000   0.0000   0.0000   0.4239
   3.000   1.1490   0.02824   0.01878  -0.1949  0.6332  1.0000  -1.3698   0.0000   0.0000   0.0000   0.4147
   3.500   1.1940   0.03016   0.02065  -0.1935  0.6134  1.0000  -1.4310   0.0000   0.0000   0.0000   0.4065
   4.000   1.2465   0.03242   0.02280  -0.1934  0.5991  1.0000  -1.5070   0.0000   0.0000   0.0000   0.3990
   4.500   1.2775   0.03528   0.02582  -0.1906  0.5817  1.0000  -1.5626   0.0000   0.0000   0.0000   0.3924
   5.000   1.3400   0.03706   0.02743  -0.1912  0.5673  1.0000  -1.6661   0.0000   0.0000   0.0000   0.3852
   5.500   1.3422   0.04186   0.03265  -0.1854  0.5511  1.0000  -1.6982   0.0000   0.0000   0.0000   0.3801
   6.000   1.3966   0.04352   0.03447  -0.1848  0.5357  1.0000  -1.8121   0.0000   0.0000   0.0000   0.3735
   6.500   1.3878   0.05008   0.04136  -0.1786  0.5201  1.0000  -1.8403   0.0000   0.0000   0.0000   0.3692
   7.000   1.4120   0.05366   0.04510  -0.1751  0.5030  1.0000  -1.9281   0.0000   0.0000   0.0000   0.3638
   7.500   1.3946   0.06132   0.05298  -0.1688  0.4874  1.0000  -1.9521   0.0000   0.0000   0.0000   0.3602
   8.000   1.2339   0.08562   0.07752  -0.1634  0.4644  1.0000  -1.6841   0.0000   0.0000   0.0000   0.3712
   9.000   1.1849   0.10776   0.09992  -0.1633  0.4301  1.0000  -1.6378   0.0000   0.0000   0.0000   0.3754
   9.500   1.1758   0.11721   0.10949  -0.1634  0.4126  1.0000  -1.6425   0.0000   0.0000   0.0000   0.3759
  10.000   1.1660   0.12641   0.11884  -0.1644  0.3970  1.0000  -1.6370   0.0000   0.0000   0.0000   0.3772
  10.500   1.1716   0.13357   0.12612  -0.1641  0.3767  1.0000  -1.6698   0.0000   0.0000   0.0000   0.3755
  11.000   1.1574   0.14428   0.13698  -0.1669  0.3658  1.0000  -1.6340   0.0000   0.0000   0.0000   0.3790
  11.500   1.1746   0.14968   0.14250  -0.1661  0.3426  1.0000  -1.6899   0.0000   0.0000   0.0000   0.3753
  12.000   1.2510   0.14689   0.13987  -0.1592  0.3194  1.0000  -1.9504   0.0000   0.0000   0.0000   0.3598
  12.500   1.1824   0.16586   0.15894  -0.1693  0.3117  1.0000  -1.7250   0.0000   0.0000   0.0000   0.3756
  13.000   1.2243   0.16721   0.16061  -0.1657  0.2862  1.0000  -1.8781   0.0000   0.0000   0.0000   0.3665
  13.500   1.1977   0.18173   0.17525  -0.1730  0.2842  1.0000  -1.7535   0.0000   0.0000   0.0000   0.3751
  14.000   1.1892   0.19335   0.18699  -0.1785  0.2844  1.0000  -1.6882   0.0000   0.0000   0.0000   0.3802
  14.500   1.2210   0.19823   0.19204  -0.1773  0.2642  1.0000  -1.8030   0.0000   0.0000   0.0000   0.3741
  18.000   1.2806   0.28489   0.27964  -0.1994  0.2331  1.0000  -2.1055   0.0000   0.0000   0.0000   0.3786
  18.500   1.2293   0.28130   0.27599  -0.2102  0.2263  1.0000  -1.8500   0.0000   0.0000   0.0000   0.3929
  19.000   1.2387   0.29034   0.28518  -0.2120  0.2131  1.0000  -1.9415   0.0000   0.0000   0.0000   0.3919
  19.500   1.2712   0.31028   0.30546  -0.2098  0.2059  1.0000  -2.1722   0.0000   0.0000   0.0000   0.3847
  20.000   1.2412   0.31148   0.30668  -0.2172  0.1902  1.0000  -2.0189   0.0000   0.0000   0.0000   0.3936


