xflr5 v6.61

 Calculated polar for: franky

 1 1 Reynolds number fixed          Mach number fixed         

 xtrf =   1.000 (top)        1.000 (bottom)
 Mach =   0.000     Re =     0.100 e 6     Ncrit =   9.000

  alpha     CL        CD       CDp       Cm    Top Xtr Bot Xtr   Cpmin    Chinge    XCp    
 ------- -------- --------- --------- -------- ------- ------- -------- --------- ---------
   0.000   0.5286   0.01552   0.00917  -0.1276  0.8576  1.0000  -0.7536   0.0000   0.0000   0.0000   0.4903
   0.500   0.6088   0.01484   0.00812  -0.1307  0.8295  1.0000  -0.8220   0.0000   0.0000   0.0000   0.4631
   1.000   0.6732   0.01460   0.00758  -0.1311  0.7892  1.0000  -0.8849   0.0000   0.0000   0.0000   0.4426
   1.500   0.7396   0.01451   0.00715  -0.1318  0.7491  1.0000  -0.9558   0.0000   0.0000   0.0000   0.4256
   2.000   0.8019   0.01481   0.00706  -0.1320  0.7100  1.0000  -1.0315   0.0000   0.0000   0.0000   0.4115
   2.500   0.8581   0.01543   0.00739  -0.1315  0.6724  1.0000  -1.1077   0.0000   0.0000   0.0000   0.3996
   3.000   0.9125   0.01619   0.00799  -0.1308  0.6385  1.0000  -1.1904   0.0000   0.0000   0.0000   0.3892
   3.500   0.9650   0.01696   0.00859  -0.1299  0.6072  1.0000  -1.2818   0.0000   0.0000   0.0000   0.3800
   4.000   1.0158   0.01779   0.00936  -0.1288  0.5780  1.0000  -1.3811   0.0000   0.0000   0.0000   0.3716
   4.500   1.0667   0.01875   0.01027  -0.1279  0.5510  1.0000  -1.4939   0.0000   0.0000   0.0000   0.3641
   5.000   1.1184   0.01975   0.01118  -0.1269  0.5256  1.0000  -1.6220   0.0000   0.0000   0.0000   0.3571
   5.500   1.1694   0.02062   0.01198  -0.1258  0.4996  1.0000  -1.7634   0.0000   0.0000   0.0000   0.3506
   6.000   1.2167   0.02156   0.01328  -0.1241  0.4723  1.0000  -1.9080   0.0000   0.0000   0.0000   0.3444
   6.500   1.2640   0.02259   0.01439  -0.1225  0.4452  1.0000  -2.0764   0.0000   0.0000   0.0000   0.3387
   7.000   1.3112   0.02354   0.01536  -0.1208  0.4171  1.0000  -2.3201   0.0000   0.0000   0.0000   0.3332
   7.500   1.3568   0.02443   0.01626  -0.1188  0.3869  1.0000  -2.7423   0.0000   0.0000   0.0000   0.3278
   8.000   1.3998   0.02531   0.01724  -0.1164  0.3554  1.0000  -3.1458   0.0000   0.0000   0.0000   0.3227
   8.500   1.4379   0.02628   0.01833  -0.1133  0.3214  1.0000  -3.5716   0.0000   0.0000   0.0000   0.3175
   9.000   1.4725   0.02749   0.01968  -0.1097  0.2864  1.0000  -3.9944   0.0000   0.0000   0.0000   0.3125
   9.500   1.5013   0.02880   0.02103  -0.1055  0.2503  1.0000  -4.4047   0.0000   0.0000   0.0000   0.3074
  10.000   1.5194   0.03039   0.02238  -0.1001  0.2128  1.0000  -4.7827   0.0000   0.0000   0.0000   0.3023
  10.500   1.5306   0.03243   0.02472  -0.0941  0.1819  1.0000  -5.1381   0.0000   0.0000   0.0000   0.2970
  11.000   1.5378   0.03499   0.02740  -0.0881  0.1577  1.0000  -5.4529   0.0000   0.0000   0.0000   0.2920
  11.500   1.5400   0.03806   0.03061  -0.0825  0.1366  1.0000  -5.7300   0.0000   0.0000   0.0000   0.2875
  12.000   1.5344   0.04188   0.03466  -0.0778  0.1141  1.0000  -5.9510   0.0000   0.0000   0.0000   0.2837
  12.500   1.5183   0.04766   0.04065  -0.0744  0.0872  1.0000  -6.0525   0.0000   0.0000   0.0000   0.2810
  13.000   1.4750   0.05809   0.05107  -0.0732  0.0567  1.0000  -5.8960   0.0000   0.0000   0.0000   0.2807
  13.500   1.4363   0.06967   0.06277  -0.0744  0.0437  1.0000  -5.7374   0.0000   0.0000   0.0000   0.2818
  14.000   1.4051   0.08076   0.07398  -0.0766  0.0382  1.0000  -5.6533   0.0000   0.0000   0.0000   0.2835
  14.500   1.3926   0.08952   0.08307  -0.0773  0.0343  1.0000  -5.6245   0.0000   0.0000   0.0000   0.2836
  15.000   1.3858   0.09780   0.09166  -0.0784  0.0317  1.0000  -5.6452   0.0000   0.0000   0.0000   0.2836
  15.500   1.3790   0.10636   0.10053  -0.0802  0.0302  1.0000  -5.6689   0.0000   0.0000   0.0000   0.2843
  16.000   1.3670   0.11632   0.11087  -0.0837  0.0295  1.0000  -5.6441   0.0000   0.0000   0.0000   0.2864
  16.500   1.3436   0.12921   0.12422  -0.0903  0.0294  1.0000  -5.5116   0.0000   0.0000   0.0000   0.2915
  17.000   1.3019   0.14722   0.14277  -0.1021  0.0301  1.0000  -5.1791   0.0000   0.0000   0.0000   0.3020
  17.500   1.1937   0.19125   0.18726  -0.1299  0.0341  1.0000  -3.9153   0.0000   0.0000   0.0000   0.3335
  18.000   1.1565   0.22002   0.21593  -0.1427  0.0362  1.0000  -3.1454   0.0000   0.0000   0.0000   0.3484
  18.500   1.1522   0.23589   0.23178  -0.1479  0.0375  1.0000  -2.9047   0.0000   0.0000   0.0000   0.3529
  19.000   1.1221   0.27290   0.26863  -0.1631  0.0724  1.0000  -1.8529   0.0000   0.0000   0.0000   0.3709
  19.500   1.1268   0.28486   0.28062  -0.1671  0.0717  1.0000  -1.7882   0.0000   0.0000   0.0000   0.3731
  20.000   1.1337   0.29581   0.29160  -0.1700  0.0695  1.0000  -1.7745   0.0000   0.0000   0.0000   0.3738


