xflr5 v6.61

 Calculated polar for: franky 2

 1 1 Reynolds number fixed          Mach number fixed         

 xtrf =   1.000 (top)        1.000 (bottom)
 Mach =   0.000     Re =     0.001 e 6     Ncrit =   9.000

  alpha     CL        CD       CDp       Cm    Top Xtr Bot Xtr   Cpmin    Chinge    XCp    
 ------- -------- --------- --------- -------- ------- ------- -------- --------- ---------
   0.000   0.0036   0.17012   0.07991  -0.0544  1.0000  1.0000  -1.2269   0.0000   0.0000   0.0000  15.6987
   0.500   0.0381   0.16977   0.07620  -0.0565  1.0000  1.0000  -1.1227   0.0000   0.0000   0.0000   1.7543
   1.000   0.0733   0.16980   0.07375  -0.0585  1.0000  1.0000  -1.0188   0.0000   0.0000   0.0000   1.0559
   1.500   0.1089   0.17021   0.07178  -0.0605  1.0000  1.0000  -0.9111   0.0000   0.0000   0.0000   0.8073
   2.000   0.1445   0.17093   0.07031  -0.0623  1.0000  1.0000  -0.8014   0.0000   0.0000   0.0000   0.6805
   2.500   0.1799   0.17199   0.06935  -0.0640  1.0000  1.0000  -0.6911   0.0000   0.0000   0.0000   0.6036
   3.000   0.2150   0.17337   0.06892  -0.0656  1.0000  1.0000  -0.5994   0.0000   0.0000   0.0000   0.5520
   3.500   0.2494   0.17505   0.06900  -0.0671  1.0000  1.0000  -0.6193   0.0000   0.0000   0.0000   0.5152
   4.000   0.2830   0.17701   0.06957  -0.0687  1.0000  1.0000  -0.6396   0.0000   0.0000   0.0000   0.4878
   4.500   0.3155   0.17923   0.07063  -0.0701  1.0000  1.0000  -0.6609   0.0000   0.0000   0.0000   0.4667
   5.000   0.3480   0.18170   0.07192  -0.0715  1.0000  1.0000  -0.6810   0.0000   0.0000   0.0000   0.4493
   5.500   0.3796   0.18441   0.07363  -0.0729  1.0000  1.0000  -0.7028   0.0000   0.0000   0.0000   0.4351
   6.000   0.4104   0.18735   0.07576  -0.0743  1.0000  1.0000  -0.7245   0.0000   0.0000   0.0000   0.4235
   6.500   0.4403   0.19053   0.07829  -0.0757  1.0000  1.0000  -0.7456   0.0000   0.0000   0.0000   0.4138
   7.000   0.4694   0.19394   0.08122  -0.0772  1.0000  1.0000  -0.7690   0.0000   0.0000   0.0000   0.4056
   7.500   0.4976   0.19756   0.08453  -0.0787  1.0000  1.0000  -0.7909   0.0000   0.0000   0.0000   0.3986
   8.000   0.5250   0.20140   0.08823  -0.0802  1.0000  1.0000  -0.8151   0.0000   0.0000   0.0000   0.3927
   8.500   0.5515   0.20546   0.09229  -0.0818  1.0000  1.0000  -0.8390   0.0000   0.0000   0.0000   0.3876
   9.000   0.5773   0.20971   0.09671  -0.0835  1.0000  1.0000  -0.8623   0.0000   0.0000   0.0000   0.3832
   9.500   0.6023   0.21418   0.10189  -0.0853  1.0000  1.0000  -0.8885   0.0000   0.0000   0.0000   0.3795
  10.000   0.6266   0.21885   0.10686  -0.0871  1.0000  1.0000  -0.9129   0.0000   0.0000   0.0000   0.3763
  10.500   0.6503   0.22373   0.11216  -0.0890  1.0000  1.0000  -0.9398   0.0000   0.0000   0.0000   0.3735
  11.000   0.6734   0.22882   0.11778  -0.0911  1.0000  1.0000  -0.9669   0.0000   0.0000   0.0000   0.3710
  11.500   0.6958   0.23411   0.12373  -0.0932  1.0000  1.0000  -0.9920   0.0000   0.0000   0.0000   0.3690
  12.000   0.7175   0.23960   0.12998  -0.0953  1.0000  1.0000  -1.0221   0.0000   0.0000   0.0000   0.3672
  12.500   0.7385   0.24530   0.13654  -0.0976  1.0000  1.0000  -1.0502   0.0000   0.0000   0.0000   0.3658
  13.000   0.7590   0.25121   0.14339  -0.1000  1.0000  1.0000  -1.0768   0.0000   0.0000   0.0000   0.3646
  13.500   0.7787   0.25732   0.15052  -0.1024  1.0000  1.0000  -1.1085   0.0000   0.0000   0.0000   0.3636
  14.000   0.7979   0.26359   0.15871  -0.1050  1.0000  1.0000  -1.1382   0.0000   0.0000   0.0000   0.3628
  14.500   0.8162   0.27008   0.16633  -0.1076  1.0000  1.0000  -1.1646   0.0000   0.0000   0.0000   0.3623
  15.000   0.8339   0.27678   0.17425  -0.1104  1.0000  1.0000  -1.1955   0.0000   0.0000   0.0000   0.3620
  15.500   0.8510   0.28370   0.18245  -0.1133  1.0000  1.0000  -1.2258   0.0000   0.0000   0.0000   0.3618
  16.000   0.8677   0.29081   0.19089  -0.1162  1.0000  1.0000  -1.2533   0.0000   0.0000   0.0000   0.3618
  16.500   0.8838   0.29813   0.19956  -0.1192  1.0000  1.0000  -1.2778   0.0000   0.0000   0.0000   0.3618
  17.000   0.8993   0.30565   0.20848  -0.1223  1.0000  1.0000  -1.3067   0.0000   0.0000   0.0000   0.3620
  17.500   0.9141   0.31338   0.21762  -0.1254  1.0000  1.0000  -1.3359   0.0000   0.0000   0.0000   0.3623
  18.000   0.9289   0.32138   0.22822  -0.1283  1.0000  1.0000  -1.3629   0.0000   0.0000   0.0000   0.3624
  18.500   0.9421   0.32937   0.23759  -0.1316  1.0000  1.0000  -1.3854   0.0000   0.0000   0.0000   0.3629
  19.000   0.9547   0.33762   0.24732  -0.1348  1.0000  1.0000  -1.4129   0.0000   0.0000   0.0000   0.3635
  19.500   0.9666   0.34606   0.25728  -0.1381  1.0000  1.0000  -1.4405   0.0000   0.0000   0.0000   0.3641
  20.000   0.9778   0.35468   0.26744  -0.1413  1.0000  1.0000  -1.4642   0.0000   0.0000   0.0000   0.3648


