xflr5 v6.61

 Calculated polar for: franky

 1 1 Reynolds number fixed          Mach number fixed         

 xtrf =   1.000 (top)        1.000 (bottom)
 Mach =   0.000     Re =     0.002 e 6     Ncrit =   9.000

  alpha     CL        CD       CDp       Cm    Top Xtr Bot Xtr   Cpmin    Chinge    XCp    
 ------- -------- --------- --------- -------- ------- ------- -------- --------- ---------
   0.000   0.0600   0.08257   0.03650  -0.0519  1.0000  1.0000  -1.1134   0.0000   0.0000   0.0000   1.1180
   0.500   0.1013   0.08337   0.03548  -0.0531  1.0000  1.0000  -0.9440   0.0000   0.0000   0.0000   0.7747
   1.000   0.1410   0.08446   0.03505  -0.0541  1.0000  1.0000  -0.7772   0.0000   0.0000   0.0000   0.6321
   1.500   0.1792   0.08583   0.03517  -0.0548  1.0000  1.0000  -0.6154   0.0000   0.0000   0.0000   0.5537
   2.000   0.2159   0.08747   0.03578  -0.0555  1.0000  1.0000  -0.5565   0.0000   0.0000   0.0000   0.5041
   2.500   0.2511   0.08936   0.03685  -0.0561  1.0000  1.0000  -0.5822   0.0000   0.0000   0.0000   0.4699
   3.000   0.2850   0.09152   0.03820  -0.0567  1.0000  1.0000  -0.6092   0.0000   0.0000   0.0000   0.4448
   3.500   0.3176   0.09395   0.03998  -0.0574  1.0000  1.0000  -0.6358   0.0000   0.0000   0.0000   0.4260
   4.000   0.3488   0.09663   0.04217  -0.0581  1.0000  1.0000  -0.6632   0.0000   0.0000   0.0000   0.4114
   4.500   0.3787   0.09957   0.04477  -0.0589  1.0000  1.0000  -0.6910   0.0000   0.0000   0.0000   0.3999
   5.000   0.4073   0.10277   0.04775  -0.0598  1.0000  1.0000  -0.7190   0.0000   0.0000   0.0000   0.3907
   5.500   0.4349   0.10621   0.05111  -0.0609  1.0000  1.0000  -0.7475   0.0000   0.0000   0.0000   0.3833
   6.000   0.4614   0.10990   0.05482  -0.0621  1.0000  1.0000  -0.7765   0.0000   0.0000   0.0000   0.3773
   6.500   0.4870   0.11383   0.05888  -0.0634  1.0000  1.0000  -0.8060   0.0000   0.0000   0.0000   0.3725
   7.000   0.5116   0.11800   0.06326  -0.0649  1.0000  1.0000  -0.8364   0.0000   0.0000   0.0000   0.3686
   7.500   0.5353   0.12239   0.06797  -0.0665  1.0000  1.0000  -0.8664   0.0000   0.0000   0.0000   0.3655
   8.000   0.5583   0.12702   0.07331  -0.0683  1.0000  1.0000  -0.8988   0.0000   0.0000   0.0000   0.3631
   8.500   0.5804   0.13186   0.07851  -0.0703  1.0000  1.0000  -0.9284   0.0000   0.0000   0.0000   0.3613
   9.000   0.6018   0.13692   0.08399  -0.0724  1.0000  1.0000  -0.9632   0.0000   0.0000   0.0000   0.3599
   9.500   0.6225   0.14220   0.08976  -0.0747  1.0000  1.0000  -0.9946   0.0000   0.0000   0.0000   0.3590
  10.000   0.6426   0.14770   0.09579  -0.0771  1.0000  1.0000  -1.0268   0.0000   0.0000   0.0000   0.3584
  10.500   0.6620   0.15340   0.10207  -0.0797  1.0000  1.0000  -1.0611   0.0000   0.0000   0.0000   0.3582
  11.000   0.6810   0.15933   0.10861  -0.0825  1.0000  1.0000  -1.0915   0.0000   0.0000   0.0000   0.3582
  11.500   0.6994   0.16545   0.11538  -0.0854  1.0000  1.0000  -1.1228   0.0000   0.0000   0.0000   0.3585
  12.000   0.7173   0.17179   0.12238  -0.0884  1.0000  1.0000  -1.1570   0.0000   0.0000   0.0000   0.3590
  12.500   0.7348   0.17833   0.12961  -0.0915  1.0000  1.0000  -1.1870   0.0000   0.0000   0.0000   0.3597
  13.000   0.7520   0.18515   0.13807  -0.0948  1.0000  1.0000  -1.2197   0.0000   0.0000   0.0000   0.3605
  13.500   0.7686   0.19209   0.14574  -0.0982  1.0000  1.0000  -1.2564   0.0000   0.0000   0.0000   0.3615
  14.000   0.7849   0.19923   0.15359  -0.1017  1.0000  1.0000  -1.2879   0.0000   0.0000   0.0000   0.3626
  14.500   0.8009   0.20657   0.16164  -0.1053  1.0000  1.0000  -1.3177   0.0000   0.0000   0.0000   0.3638
  15.000   0.8165   0.21413   0.16991  -0.1090  1.0000  1.0000  -1.3701   0.0000   0.0000   0.0000   0.3651
  15.500   0.8319   0.22190   0.17839  -0.1127  1.0000  1.0000  -1.4324   0.0000   0.0000   0.0000   0.3663
  16.000   0.8469   0.22989   0.18709  -0.1165  1.0000  1.0000  -1.4897   0.0000   0.0000   0.0000   0.3676
  16.500   0.8618   0.23809   0.19598  -0.1204  1.0000  1.0000  -1.5418   0.0000   0.0000   0.0000   0.3689
  17.000   0.8764   0.24651   0.20568  -0.1242  1.0000  1.0000  -1.5887   0.0000   0.0000   0.0000   0.3702
  17.500   0.8907   0.25510   0.21494  -0.1282  1.0000  1.0000  -1.6336   0.0000   0.0000   0.0000   0.3715
  18.000   0.9047   0.26394   0.22446  -0.1321  1.0000  1.0000  -1.6675   0.0000   0.0000   0.0000   0.3728
  18.500   0.9182   0.27304   0.23422  -0.1360  1.0000  1.0000  -1.7153   0.0000   0.0000   0.0000   0.3740
  19.000   0.9314   0.28240   0.24423  -0.1399  1.0000  1.0000  -1.7727   0.0000   0.0000   0.0000   0.3752
  19.500   0.9441   0.29202   0.25449  -0.1438  1.0000  1.0000  -1.8234   0.0000   0.0000   0.0000   0.3764
  20.000   0.9563   0.30190   0.26499  -0.1476  1.0000  1.0000  -1.8671   0.0000   0.0000   0.0000   0.3776


