xflr5 v6.61

 Calculated polar for: franky 2

 1 1 Reynolds number fixed          Mach number fixed         

 xtrf =   1.000 (top)        1.000 (bottom)
 Mach =   0.000     Re =     0.030 e 6     Ncrit =   9.000

  alpha     CL        CD       CDp       Cm    Top Xtr Bot Xtr   Cpmin    Chinge    XCp    
 ------- -------- --------- --------- -------- ------- ------- -------- --------- ---------
   0.000  -0.2302   0.07114   0.06622   0.0344  0.9663  0.8562  -0.9175   0.0000   0.0000   0.0000   0.3964
   0.500   0.4335   0.05684   0.04783  -0.1567  0.9034  0.4133  -1.0867   0.0000   0.0000   0.0000   0.6114
   1.000   0.4637   0.05594   0.04770  -0.1480  0.8800  0.7070  -0.9909   0.0000   0.0000   0.0000   0.5685
   1.500   0.4659   0.05516   0.04733  -0.1395  0.8601  0.9665  -0.9107   0.0000   0.0000   0.0000   0.5480
   2.500   0.6428   0.06521   0.05487  -0.1682  0.8179  1.0000  -0.8187   0.0000   0.0000   0.0000   0.5087
   3.000   0.7071   0.06965   0.05872  -0.1731  0.8012  1.0000  -0.8681   0.0000   0.0000   0.0000   0.4911
   3.500   0.7146   0.07528   0.06419  -0.1724  0.7979  1.0000  -0.8645   0.0000   0.0000   0.0000   0.4870
   4.000   0.7254   0.08072   0.06949  -0.1718  0.7932  1.0000  -0.8681   0.0000   0.0000   0.0000   0.4821
   4.500   0.7479   0.08716   0.07578  -0.1736  0.7992  1.0000  -0.8804   0.0000   0.0000   0.0000   0.4767
   6.500   0.7221   0.11154   0.10027  -0.1693  0.9284  1.0000  -0.8293   0.0000   0.0000   0.0000   0.4764
   7.000   0.7709   0.11967   0.10833  -0.1746  0.9033  1.0000  -0.8719   0.0000   0.0000   0.0000   0.4677
   7.500   0.7958   0.12515   0.11395  -0.1759  0.8793  1.0000  -0.8995   0.0000   0.0000   0.0000   0.4616
   8.000   0.8194   0.12979   0.11864  -0.1765  0.8438  1.0000  -0.9242   0.0000   0.0000   0.0000   0.4554
   8.500   0.8501   0.13616   0.12505  -0.1785  0.8141  1.0000  -0.9615   0.0000   0.0000   0.0000   0.4493
   9.000   0.8804   0.14269   0.13165  -0.1804  0.7829  1.0000  -0.9997   0.0000   0.0000   0.0000   0.4435
   9.500   0.9116   0.14953   0.13858  -0.1821  0.7494  1.0000  -1.0461   0.0000   0.0000   0.0000   0.4377
  10.000   0.9310   0.15544   0.14460  -0.1829  0.7214  1.0000  -1.0775   0.0000   0.0000   0.0000   0.4337
  10.500   0.9565   0.16197   0.15125  -0.1839  0.6873  1.0000  -1.1197   0.0000   0.0000   0.0000   0.4289
  11.000   0.9768   0.16886   0.15828  -0.1851  0.6613  1.0000  -1.1588   0.0000   0.0000   0.0000   0.4253
  11.500   1.0081   0.17847   0.16823  -0.1871  0.6339  1.0000  -1.2107   0.0000   0.0000   0.0000   0.4207
  12.000   1.0586   0.19378   0.18374  -0.1902  0.6025  1.0000  -1.2881   0.0000   0.0000   0.0000   0.4141
  12.500   1.0485   0.19138   0.18146  -0.1888  0.5734  1.0000  -1.2727   0.0000   0.0000   0.0000   0.4137
  13.000   1.0558   0.19555   0.18576  -0.1896  0.5449  1.0000  -1.2904   0.0000   0.0000   0.0000   0.4123
  13.500   1.0876   0.20966   0.20006  -0.1918  0.5270  1.0000  -1.3427   0.0000   0.0000   0.0000   0.4084
  14.000   1.1108   0.21698   0.20759  -0.1926  0.4967  1.0000  -1.3816   0.0000   0.0000   0.0000   0.4046
  14.500   1.1017   0.21723   0.20790  -0.1943  0.4748  1.0000  -1.3504   0.0000   0.0000   0.0000   0.4066
  15.000   1.1585   0.24438   0.23535  -0.1962  0.4569  1.0000  -1.4624   0.0000   0.0000   0.0000   0.3989
  15.500   1.1280   0.23326   0.22424  -0.1983  0.4382  1.0000  -1.3937   0.0000   0.0000   0.0000   0.4043
  16.000   1.1658   0.25294   0.24438  -0.1994  0.4201  1.0000  -1.4623   0.0000   0.0000   0.0000   0.3987
  16.500   1.1524   0.25015   0.24168  -0.2024  0.4022  1.0000  -1.4223   0.0000   0.0000   0.0000   0.4022
  17.000   1.2095   0.28096   0.27288  -0.2028  0.3872  1.0000  -1.6323   0.0000   0.0000   0.0000   0.3935
  17.500   1.1729   0.26893   0.26078  -0.2069  0.3761  1.0000  -1.5357   0.0000   0.0000   0.0000   0.4011
  18.000   1.2063   0.28584   0.27799  -0.2070  0.3556  1.0000  -1.6735   0.0000   0.0000   0.0000   0.3953
  18.500   1.1981   0.29165   0.28387  -0.2105  0.3495  1.0000  -1.6539   0.0000   0.0000   0.0000   0.3984
  19.000   1.1974   0.29719   0.28957  -0.2132  0.3333  1.0000  -1.6744   0.0000   0.0000   0.0000   0.3997
  19.500   1.2283   0.31974   0.31237  -0.2133  0.3201  1.0000  -1.8409   0.0000   0.0000   0.0000   0.3943
  20.000   1.2049   0.31751   0.31023  -0.2168  0.3052  1.0000  -1.7758   0.0000   0.0000   0.0000   0.3994


