xflr5 v6.61

 Calculated polar for: franky 2

 1 1 Reynolds number fixed          Mach number fixed         

 xtrf =   1.000 (top)        1.000 (bottom)
 Mach =   0.000     Re =     0.002 e 6     Ncrit =   9.000

  alpha     CL        CD       CDp       Cm    Top Xtr Bot Xtr   Cpmin    Chinge    XCp    
 ------- -------- --------- --------- -------- ------- ------- -------- --------- ---------
   0.000  -0.0359   0.09001   0.05938  -0.0397  1.0000  1.0000  -1.4929   0.0000   0.0000   0.0000  -0.8758
   0.500   0.0371   0.08979   0.05590  -0.0565  1.0000  1.0000  -1.4051   0.0000   0.0000   0.0000   1.7835
   1.000   0.1076   0.09115   0.05409  -0.0685  1.0000  1.0000  -1.2895   0.0000   0.0000   0.0000   0.8875
   1.500   0.1652   0.09314   0.05337  -0.0758  1.0000  1.0000  -1.1580   0.0000   0.0000   0.0000   0.7079
   2.000   0.2146   0.09549   0.05350  -0.0809  1.0000  1.0000  -1.0224   0.0000   0.0000   0.0000   0.6245
   2.500   0.2588   0.09814   0.05431  -0.0847  1.0000  1.0000  -0.8870   0.0000   0.0000   0.0000   0.5740
   3.000   0.2993   0.10105   0.05569  -0.0879  1.0000  1.0000  -0.7541   0.0000   0.0000   0.0000   0.5394
   3.500   0.3372   0.10422   0.05758  -0.0906  1.0000  1.0000  -0.6668   0.0000   0.0000   0.0000   0.5138
   4.000   0.3728   0.10762   0.05991  -0.0931  1.0000  1.0000  -0.6854   0.0000   0.0000   0.0000   0.4940
   4.500   0.4071   0.11124   0.06239  -0.0953  1.0000  1.0000  -0.7062   0.0000   0.0000   0.0000   0.4780
   5.000   0.4397   0.11506   0.06539  -0.0975  1.0000  1.0000  -0.7257   0.0000   0.0000   0.0000   0.4649
   5.500   0.4709   0.11908   0.06874  -0.0996  1.0000  1.0000  -0.7459   0.0000   0.0000   0.0000   0.4540
   6.000   0.5010   0.12329   0.07242  -0.1017  1.0000  1.0000  -0.7670   0.0000   0.0000   0.0000   0.4448
   6.500   0.5301   0.12768   0.07641  -0.1037  1.0000  1.0000  -0.7872   0.0000   0.0000   0.0000   0.4369
   7.000   0.5582   0.13225   0.08070  -0.1058  1.0000  1.0000  -0.8105   0.0000   0.0000   0.0000   0.4302
   7.500   0.5853   0.13698   0.08528  -0.1079  1.0000  1.0000  -0.8316   0.0000   0.0000   0.0000   0.4243
   8.000   0.6116   0.14189   0.09013  -0.1100  1.0000  1.0000  -0.8559   0.0000   0.0000   0.0000   0.4193
   8.500   0.6371   0.14695   0.09524  -0.1122  1.0000  1.0000  -0.8796   0.0000   0.0000   0.0000   0.4148
   9.000   0.6619   0.15218   0.10086  -0.1145  1.0000  1.0000  -0.9043   0.0000   0.0000   0.0000   0.4110
   9.500   0.6859   0.15758   0.10639  -0.1169  1.0000  1.0000  -0.9311   0.0000   0.0000   0.0000   0.4076
  10.000   0.7093   0.16315   0.11216  -0.1193  1.0000  1.0000  -0.9554   0.0000   0.0000   0.0000   0.4047
  10.500   0.7319   0.16888   0.11817  -0.1218  1.0000  1.0000  -0.9852   0.0000   0.0000   0.0000   0.4022
  11.000   0.7540   0.17480   0.12443  -0.1244  1.0000  1.0000  -1.0127   0.0000   0.0000   0.0000   0.4001
  11.500   0.7753   0.18089   0.13094  -0.1271  1.0000  1.0000  -1.0404   0.0000   0.0000   0.0000   0.3982
  12.000   0.7960   0.18716   0.13768  -0.1299  1.0000  1.0000  -1.0716   0.0000   0.0000   0.0000   0.3967
  12.500   0.8161   0.19363   0.14466  -0.1328  1.0000  1.0000  -1.0994   0.0000   0.0000   0.0000   0.3954
  13.000   0.8355   0.20028   0.15187  -0.1358  1.0000  1.0000  -1.1255   0.0000   0.0000   0.0000   0.3944
  13.500   0.8544   0.20713   0.15991  -0.1389  1.0000  1.0000  -1.1574   0.0000   0.0000   0.0000   0.3936
  14.000   0.8726   0.21417   0.16755  -0.1421  1.0000  1.0000  -1.1858   0.0000   0.0000   0.0000   0.3930
  14.500   0.8903   0.22141   0.17542  -0.1454  1.0000  1.0000  -1.2103   0.0000   0.0000   0.0000   0.3926
  15.000   0.9074   0.22887   0.18353  -0.1487  1.0000  1.0000  -1.2308   0.0000   0.0000   0.0000   0.3924
  15.500   0.9241   0.23655   0.19188  -0.1522  1.0000  1.0000  -1.2598   0.0000   0.0000   0.0000   0.3923
  16.000   0.9402   0.24445   0.20047  -0.1557  1.0000  1.0000  -1.2854   0.0000   0.0000   0.0000   0.3923
  16.500   0.9559   0.25256   0.20928  -0.1593  1.0000  1.0000  -1.3068   0.0000   0.0000   0.0000   0.3924
  17.000   0.9711   0.26085   0.21828  -0.1630  1.0000  1.0000  -1.3241   0.0000   0.0000   0.0000   0.3925
  17.500   0.9859   0.26936   0.22749  -0.1666  1.0000  1.0000  -1.3525   0.0000   0.0000   0.0000   0.3928
  18.000   1.0004   0.27816   0.23781  -0.1703  1.0000  1.0000  -1.3772   0.0000   0.0000   0.0000   0.3930
  18.500   1.0141   0.28715   0.24754  -0.1741  1.0000  1.0000  -1.3978   0.0000   0.0000   0.0000   0.3934
  19.000   1.0273   0.29641   0.25753  -0.1778  1.0000  1.0000  -1.4262   0.0000   0.0000   0.0000   0.3938
  19.500   1.0399   0.30592   0.26778  -0.1815  1.0000  1.0000  -1.4656   0.0000   0.0000   0.0000   0.3942
  20.000   1.0520   0.31568   0.27829  -0.1852  1.0000  1.0000  -1.5134   0.0000   0.0000   0.0000   0.3946


