xflr5 v6.61

 Calculated polar for: franky

 1 1 Reynolds number fixed          Mach number fixed         

 xtrf =   1.000 (top)        1.000 (bottom)
 Mach =   0.000     Re =     0.001 e 6     Ncrit =   9.000

  alpha     CL        CD       CDp       Cm    Top Xtr Bot Xtr   Cpmin    Chinge    XCp    
 ------- -------- --------- --------- -------- ------- ------- -------- --------- ---------
   0.000   0.0365   0.16631   0.05760  -0.0456  1.0000  1.0000  -0.7812   0.0000   0.0000   0.0000   1.5113
   0.500   0.0701   0.16608   0.05552  -0.0458  1.0000  1.0000  -0.6695   0.0000   0.0000   0.0000   0.9081
   1.000   0.1033   0.16606   0.05389  -0.0460  1.0000  1.0000  -0.5625   0.0000   0.0000   0.0000   0.6961
   1.500   0.1359   0.16625   0.05275  -0.0461  1.0000  1.0000  -0.4987   0.0000   0.0000   0.0000   0.5881
   2.000   0.1681   0.16678   0.05216  -0.0462  1.0000  1.0000  -0.5195   0.0000   0.0000   0.0000   0.5227
   2.500   0.1994   0.16774   0.05262  -0.0464  1.0000  1.0000  -0.5423   0.0000   0.0000   0.0000   0.4798
   3.000   0.2316   0.16894   0.05282  -0.0465  1.0000  1.0000  -0.5658   0.0000   0.0000   0.0000   0.4473
   3.500   0.2633   0.17040   0.05344  -0.0467  1.0000  1.0000  -0.5908   0.0000   0.0000   0.0000   0.4231
   4.000   0.2943   0.17211   0.05451  -0.0469  1.0000  1.0000  -0.6161   0.0000   0.0000   0.0000   0.4045
   4.500   0.3246   0.17408   0.05602  -0.0471  1.0000  1.0000  -0.6429   0.0000   0.0000   0.0000   0.3898
   5.000   0.3543   0.17633   0.05799  -0.0474  1.0000  1.0000  -0.6700   0.0000   0.0000   0.0000   0.3780
   5.500   0.3832   0.17884   0.06040  -0.0478  1.0000  1.0000  -0.6987   0.0000   0.0000   0.0000   0.3684
   6.000   0.4112   0.18160   0.06322  -0.0482  1.0000  1.0000  -0.7275   0.0000   0.0000   0.0000   0.3606
   6.500   0.4383   0.18460   0.06643  -0.0488  1.0000  1.0000  -0.7575   0.0000   0.0000   0.0000   0.3541
   7.000   0.4645   0.18784   0.07003  -0.0494  1.0000  1.0000  -0.7881   0.0000   0.0000   0.0000   0.3487
   7.500   0.4898   0.19131   0.07401  -0.0502  1.0000  1.0000  -0.8190   0.0000   0.0000   0.0000   0.3443
   8.000   0.5143   0.19501   0.07834  -0.0511  1.0000  1.0000  -0.8516   0.0000   0.0000   0.0000   0.3406
   8.500   0.5379   0.19892   0.08336  -0.0521  1.0000  1.0000  -0.8830   0.0000   0.0000   0.0000   0.3377
   9.000   0.5606   0.20308   0.08825  -0.0533  1.0000  1.0000  -0.9179   0.0000   0.0000   0.0000   0.3354
   9.500   0.5826   0.20748   0.09350  -0.0547  1.0000  1.0000  -0.9504   0.0000   0.0000   0.0000   0.3335
  10.000   0.6040   0.21212   0.09909  -0.0562  1.0000  1.0000  -0.9854   0.0000   0.0000   0.0000   0.3321
  10.500   0.6247   0.21700   0.10500  -0.0578  1.0000  1.0000  -1.0208   0.0000   0.0000   0.0000   0.3310
  11.000   0.6447   0.22212   0.11121  -0.0595  1.0000  1.0000  -1.0535   0.0000   0.0000   0.0000   0.3302
  11.500   0.6641   0.22747   0.11773  -0.0615  1.0000  1.0000  -1.0918   0.0000   0.0000   0.0000   0.3298
  12.000   0.6830   0.23307   0.12454  -0.0635  1.0000  1.0000  -1.1278   0.0000   0.0000   0.0000   0.3296
  12.500   0.7012   0.23890   0.13162  -0.0657  1.0000  1.0000  -1.1608   0.0000   0.0000   0.0000   0.3296
  13.000   0.7188   0.24496   0.13895  -0.0680  1.0000  1.0000  -1.2005   0.0000   0.0000   0.0000   0.3299
  13.500   0.7361   0.25115   0.14763  -0.0703  1.0000  1.0000  -1.2391   0.0000   0.0000   0.0000   0.3302
  14.000   0.7524   0.25757   0.15539  -0.0730  1.0000  1.0000  -1.2722   0.0000   0.0000   0.0000   0.3310
  14.500   0.7682   0.26423   0.16344  -0.0757  1.0000  1.0000  -1.3113   0.0000   0.0000   0.0000   0.3319
  15.000   0.7834   0.27112   0.17174  -0.0786  1.0000  1.0000  -1.3498   0.0000   0.0000   0.0000   0.3329
  15.500   0.7982   0.27824   0.18028  -0.0816  1.0000  1.0000  -1.3847   0.0000   0.0000   0.0000   0.3340
  16.000   0.8126   0.28556   0.18903  -0.0846  1.0000  1.0000  -1.4160   0.0000   0.0000   0.0000   0.3352
  16.500   0.8265   0.29309   0.19796  -0.0877  1.0000  1.0000  -1.4596   0.0000   0.0000   0.0000   0.3365
  17.000   0.8403   0.30088   0.20809  -0.0908  1.0000  1.0000  -1.5016   0.0000   0.0000   0.0000   0.3376
  17.500   0.8532   0.30872   0.21730  -0.0941  1.0000  1.0000  -1.5538   0.0000   0.0000   0.0000   0.3391
  18.000   0.8655   0.31677   0.22674  -0.0974  1.0000  1.0000  -1.6039   0.0000   0.0000   0.0000   0.3405
  18.500   0.8772   0.32501   0.23639  -0.1008  1.0000  1.0000  -1.6495   0.0000   0.0000   0.0000   0.3420
  19.000   0.8883   0.33344   0.24622  -0.1041  1.0000  1.0000  -1.6905   0.0000   0.0000   0.0000   0.3436
  19.500   0.8988   0.34204   0.25621  -0.1075  1.0000  1.0000  -1.7267   0.0000   0.0000   0.0000   0.3451
  20.000   0.9086   0.35079   0.26636  -0.1108  1.0000  1.0000  -1.7579   0.0000   0.0000   0.0000   0.3466


