xflr5 v6.61

 Calculated polar for: franky 2

 1 1 Reynolds number fixed          Mach number fixed         

 xtrf =   1.000 (top)        1.000 (bottom)
 Mach =   0.000     Re =     0.200 e 6     Ncrit =   9.000

  alpha     CL        CD       CDp       Cm    Top Xtr Bot Xtr   Cpmin    Chinge    XCp    
 ------- -------- --------- --------- -------- ------- ------- -------- --------- ---------
   0.000   0.9000   0.01288   0.00543  -0.2060  0.5921  0.4565  -1.1285   0.0000   0.0000   0.0000   0.4772
   0.500   0.9552   0.01324   0.00575  -0.2057  0.5610  0.5477  -1.1846   0.0000   0.0000   0.0000   0.4630
   1.000   1.0082   0.01345   0.00617  -0.2047  0.5374  0.6952  -1.2397   0.0000   0.0000   0.0000   0.4500
   1.500   1.0401   0.01333   0.00632  -0.1987  0.5204  1.0000  -1.2803   0.0000   0.0000   0.0000   0.4374
   2.000   1.0970   0.01397   0.00665  -0.1989  0.5021  1.0000  -1.3418   0.0000   0.0000   0.0000   0.4270
   2.500   1.1543   0.01470   0.00725  -0.1992  0.4875  1.0000  -1.4064   0.0000   0.0000   0.0000   0.4176
   3.000   1.2093   0.01526   0.00773  -0.1990  0.4752  1.0000  -1.4763   0.0000   0.0000   0.0000   0.4089
   3.500   1.2649   0.01608   0.00832  -0.1990  0.4622  1.0000  -1.5551   0.0000   0.0000   0.0000   0.4010
   4.000   1.3195   0.01684   0.00908  -0.1988  0.4515  1.0000  -1.6411   0.0000   0.0000   0.0000   0.3937
   4.500   1.3717   0.01740   0.00966  -0.1980  0.4405  1.0000  -1.7318   0.0000   0.0000   0.0000   0.3867
   5.000   1.4243   0.01812   0.01039  -0.1974  0.4293  1.0000  -1.8361   0.0000   0.0000   0.0000   0.3802
   5.500   1.4771   0.01911   0.01138  -0.1970  0.4180  1.0000  -1.9517   0.0000   0.0000   0.0000   0.3742
   6.000   1.5261   0.01965   0.01204  -0.1956  0.4076  1.0000  -2.0902   0.0000   0.0000   0.0000   0.3683
   6.500   1.5753   0.02027   0.01265  -0.1943  0.3962  1.0000  -2.2477   0.0000   0.0000   0.0000   0.3626
   7.000   1.6250   0.02130   0.01370  -0.1934  0.3837  1.0000  -2.4085   0.0000   0.0000   0.0000   0.3575
   7.500   1.6692   0.02175   0.01444  -0.1911  0.3718  1.0000  -2.5649   0.0000   0.0000   0.0000   0.3521
   8.000   1.7142   0.02242   0.01505  -0.1891  0.3575  1.0000  -2.7356   0.0000   0.0000   0.0000   0.3471
   8.500   1.7543   0.02306   0.01590  -0.1863  0.3434  1.0000  -2.9138   0.0000   0.0000   0.0000   0.3421
   9.000   1.7918   0.02360   0.01649  -0.1829  0.3279  1.0000  -3.0922   0.0000   0.0000   0.0000   0.3371
   9.500   1.8275   0.02446   0.01754  -0.1793  0.3126  1.0000  -3.2678   0.0000   0.0000   0.0000   0.3322
  10.000   1.8550   0.02520   0.01847  -0.1743  0.2954  1.0000  -3.6197   0.0000   0.0000   0.0000   0.3271
  10.500   1.8760   0.02618   0.01966  -0.1682  0.2755  1.0000  -3.9478   0.0000   0.0000   0.0000   0.3219
  11.000   1.8885   0.02760   0.02112  -0.1612  0.2496  1.0000  -4.2495   0.0000   0.0000   0.0000   0.3167
  11.500   1.8951   0.02979   0.02329  -0.1541  0.2201  1.0000  -4.5311   0.0000   0.0000   0.0000   0.3116
  12.000   1.8960   0.03288   0.02635  -0.1471  0.1917  1.0000  -4.7898   0.0000   0.0000   0.0000   0.3069
  12.500   1.8927   0.03672   0.03023  -0.1406  0.1687  1.0000  -5.0294   0.0000   0.0000   0.0000   0.3026
  13.000   1.8850   0.04150   0.03511  -0.1350  0.1508  1.0000  -5.2466   0.0000   0.0000   0.0000   0.2989
  13.500   1.8687   0.04774   0.04142  -0.1304  0.1355  1.0000  -5.4190   0.0000   0.0000   0.0000   0.2959
  14.000   1.8607   0.05392   0.04792  -0.1276  0.1230  1.0000  -5.6183   0.0000   0.0000   0.0000   0.2936
  14.500   1.8354   0.06273   0.05682  -0.1260  0.1131  1.0000  -5.7263   0.0000   0.0000   0.0000   0.2925
  15.000   1.8255   0.07030   0.06474  -0.1258  0.1051  1.0000  -5.9114   0.0000   0.0000   0.0000   0.2915
  15.500   1.8010   0.08046   0.07504  -0.1269  0.0974  1.0000  -6.0103   0.0000   0.0000   0.0000   0.2919
  16.000   1.7836   0.08991   0.08474  -0.1285  0.0901  1.0000  -6.1414   0.0000   0.0000   0.0000   0.2922
  16.500   1.7678   0.09944   0.09451  -0.1309  0.0833  1.0000  -6.2749   0.0000   0.0000   0.0000   0.2930
  17.000   1.7470   0.10962   0.10479  -0.1340  0.0772  1.0000  -6.3684   0.0000   0.0000   0.0000   0.2943
  17.500   1.7364   0.11839   0.11385  -0.1370  0.0720  1.0000  -6.5149   0.0000   0.0000   0.0000   0.2953
  18.000   1.7226   0.12788   0.12359  -0.1411  0.0661  1.0000  -6.6308   0.0000   0.0000   0.0000   0.2970
  18.500   1.7045   0.13759   0.13333  -0.1459  0.0593  1.0000  -6.7021   0.0000   0.0000   0.0000   0.2993
  19.000   1.6911   0.14738   0.14348  -0.1513  0.0521  1.0000  -6.7806   0.0000   0.0000   0.0000   0.3019
  19.500   1.6654   0.15996   0.15617  -0.1585  0.0425  1.0000  -6.7399   0.0000   0.0000   0.0000   0.3064
  20.000   1.6309   0.17552   0.17178  -0.1675  0.0317  1.0000  -6.5827   0.0000   0.0000   0.0000   0.3127


