xflr5 v6.61

 Calculated polar for: franky

 1 1 Reynolds number fixed          Mach number fixed         

 xtrf =   1.000 (top)        1.000 (bottom)
 Mach =   0.000     Re =     0.030 e 6     Ncrit =   9.000

  alpha     CL        CD       CDp       Cm    Top Xtr Bot Xtr   Cpmin    Chinge    XCp    
 ------- -------- --------- --------- -------- ------- ------- -------- --------- ---------
   0.000   0.1721   0.03109   0.02134  -0.0793  1.0000  1.0000  -1.2884   0.0000   0.0000   0.0000   0.7112
   0.500   0.2133   0.03355   0.02297  -0.0821  1.0000  1.0000  -1.0839   0.0000   0.0000   0.0000   0.6340
   1.000   0.2489   0.03634   0.02522  -0.0841  1.0000  1.0000  -0.8910   0.0000   0.0000   0.0000   0.5862
   1.500   0.2966   0.03975   0.02818  -0.0884  0.9933  1.0000  -0.6706   0.0000   0.0000   0.0000   0.5459
   2.000   0.3922   0.04403   0.03194  -0.1005  0.9510  1.0000  -0.6371   0.0000   0.0000   0.0000   0.5036
   2.500   0.4623   0.04776   0.03534  -0.1075  0.9170  1.0000  -0.6907   0.0000   0.0000   0.0000   0.4794
   3.000   0.5322   0.05141   0.03876  -0.1137  0.8822  1.0000  -0.7506   0.0000   0.0000   0.0000   0.4600
   3.500   0.5894   0.05525   0.04247  -0.1178  0.8537  1.0000  -0.8042   0.0000   0.0000   0.0000   0.4458
   4.000   0.6324   0.05901   0.04619  -0.1196  0.8245  1.0000  -0.8518   0.0000   0.0000   0.0000   0.4346
   4.500   0.6823   0.06327   0.05046  -0.1224  0.7991  1.0000  -0.9088   0.0000   0.0000   0.0000   0.4244
   5.000   0.7307   0.06754   0.05480  -0.1245  0.7707  1.0000  -0.9710   0.0000   0.0000   0.0000   0.4150
   5.500   0.7321   0.07258   0.05994  -0.1227  0.7525  1.0000  -0.9809   0.0000   0.0000   0.0000   0.4116
   6.000   0.7620   0.07782   0.06541  -0.1235  0.7287  1.0000  -1.0267   0.0000   0.0000   0.0000   0.4056
   6.500   0.8021   0.08334   0.07106  -0.1250  0.7025  1.0000  -1.0919   0.0000   0.0000   0.0000   0.3989
   7.000   0.7985   0.08999   0.07786  -0.1246  0.6937  1.0000  -1.0925   0.0000   0.0000   0.0000   0.3986
   7.500   0.7726   0.09955   0.08758  -0.1271  0.7467  1.0000  -1.0439   0.0000   0.0000   0.0000   0.4065
   8.000   0.8498   0.10576   0.09399  -0.1292  0.6728  1.0000  -1.1784   0.0000   0.0000   0.0000   0.3936
  15.000   1.0139   0.21958   0.21068  -0.1471  0.4233  1.0000  -1.8911   0.0000   0.0000   0.0000   0.3782
  15.500   1.0099   0.21863   0.20995  -0.1492  0.4015  1.0000  -1.8908   0.0000   0.0000   0.0000   0.3800
  16.000   1.0206   0.22686   0.21831  -0.1513  0.3808  1.0000  -1.9537   0.0000   0.0000   0.0000   0.3797
  16.500   1.0727   0.25569   0.24754  -0.1518  0.3580  1.0000  -2.1611   0.0000   0.0000   0.0000   0.3725
  17.000   1.0424   0.24416   0.23591  -0.1561  0.3459  1.0000  -2.0382   0.0000   0.0000   0.0000   0.3797
  17.500   1.0598   0.25640   0.24832  -0.1574  0.3215  1.0000  -2.0763   0.0000   0.0000   0.0000   0.3777
  18.000   1.0958   0.28046   0.27262  -0.1572  0.2956  1.0000  -2.1147   0.0000   0.0000   0.0000   0.3721
  18.500   1.0747   0.27351   0.26562  -0.1620  0.2766  1.0000  -1.9855   0.0000   0.0000   0.0000   0.3783
  19.000   1.0814   0.28418   0.27632  -0.1644  0.2575  1.0000  -1.9041   0.0000   0.0000   0.0000   0.3788
  19.500   1.1108   0.30682   0.29910  -0.1636  0.2390  1.0000  -1.8730   0.0000   0.0000   0.0000   0.3734
  20.000   1.0940   0.30532   0.29757  -0.1689  0.2249  1.0000  -1.7436   0.0000   0.0000   0.0000   0.3794


