xflr5 v6.61

 Calculated polar for: franky

 1 1 Reynolds number fixed          Mach number fixed         

 xtrf =   1.000 (top)        1.000 (bottom)
 Mach =   0.000     Re =     0.040 e 6     Ncrit =   9.000

  alpha     CL        CD       CDp       Cm    Top Xtr Bot Xtr   Cpmin    Chinge    XCp    
 ------- -------- --------- --------- -------- ------- ------- -------- --------- ---------
   0.000   0.1917   0.02971   0.02136  -0.0847  0.9949  1.0000  -1.2663   0.0000   0.0000   0.0000   0.6922
   0.500   0.3126   0.03279   0.02326  -0.1001  0.9542  1.0000  -0.8533   0.0000   0.0000   0.0000   0.5693
   1.000   0.3975   0.03507   0.02500  -0.1082  0.9150  1.0000  -0.6437   0.0000   0.0000   0.0000   0.5207
   1.500   0.4901   0.03700   0.02647  -0.1163  0.8785  1.0000  -0.7146   0.0000   0.0000   0.0000   0.4851
   2.000   0.5464   0.03912   0.02833  -0.1187  0.8431  1.0000  -0.7632   0.0000   0.0000   0.0000   0.4646
   2.500   0.6148   0.04095   0.02998  -0.1220  0.8100  1.0000  -0.8285   0.0000   0.0000   0.0000   0.4454
   3.000   0.6734   0.04314   0.03206  -0.1240  0.7804  1.0000  -0.8919   0.0000   0.0000   0.0000   0.4306
   3.500   0.7272   0.04542   0.03431  -0.1250  0.7507  1.0000  -0.9574   0.0000   0.0000   0.0000   0.4178
   4.000   0.7696   0.04846   0.03736  -0.1251  0.7236  1.0000  -1.0151   0.0000   0.0000   0.0000   0.4080
   4.500   0.8178   0.05121   0.04030  -0.1252  0.6963  1.0000  -1.0870   0.0000   0.0000   0.0000   0.3981
   5.000   0.8884   0.05263   0.04180  -0.1261  0.6707  1.0000  -1.1993   0.0000   0.0000   0.0000   0.3864
   5.500   0.9365   0.05505   0.04435  -0.1252  0.6426  1.0000  -1.2934   0.0000   0.0000   0.0000   0.3776
   6.000   0.9317   0.06162   0.05101  -0.1227  0.6138  1.0000  -1.3083   0.0000   0.0000   0.0000   0.3751
   6.500   0.9400   0.06772   0.05723  -0.1210  0.5873  1.0000  -1.3438   0.0000   0.0000   0.0000   0.3717
   7.000   0.9761   0.07168   0.06137  -0.1195  0.5584  1.0000  -1.4364   0.0000   0.0000   0.0000   0.3648
   7.500   1.0365   0.07349   0.06344  -0.1174  0.5285  1.0000  -1.5810   0.0000   0.0000   0.0000   0.3550
   8.500   0.9937   0.09254   0.08271  -0.1164  0.4803  1.0000  -1.5357   0.0000   0.0000   0.0000   0.3579
   9.000   1.0187   0.09839   0.08910  -0.1150  0.4526  1.0000  -1.6127   0.0000   0.0000   0.0000   0.3530
   9.500   1.0553   0.10265   0.09362  -0.1124  0.4219  1.0000  -1.7437   0.0000   0.0000   0.0000   0.3460
  10.000   1.0016   0.11705   0.10804  -0.1166  0.4146  1.0000  -1.6039   0.0000   0.0000   0.0000   0.3555
  10.500   0.9823   0.12898   0.12009  -0.1202  0.4138  1.0000  -1.5444   0.0000   0.0000   0.0000   0.3610
  11.000   0.9757   0.14050   0.13176  -0.1238  0.4179  1.0000  -1.5086   0.0000   0.0000   0.0000   0.3650
  11.500   1.0557   0.14207   0.13373  -0.1170  0.3590  1.0000  -1.9450   0.0000   0.0000   0.0000   0.3481
  15.500   1.0599   0.22877   0.22154  -0.1440  0.3255  1.0000  -2.1625   0.0000   0.0000   0.0000   0.3682
  16.000   1.0349   0.22307   0.21579  -0.1490  0.3103  1.0000  -2.0574   0.0000   0.0000   0.0000   0.3754
  16.500   1.0617   0.23831   0.23124  -0.1496  0.2936  1.0000  -2.1760   0.0000   0.0000   0.0000   0.3716
  17.000   1.0974   0.25825   0.25143  -0.1491  0.2668  1.0000  -2.2747   0.0000   0.0000   0.0000   0.3659
  17.500   1.0659   0.25075   0.24382  -0.1563  0.2560  1.0000  -2.0970   0.0000   0.0000   0.0000   0.3757
  18.000   1.0758   0.26025   0.25339  -0.1582  0.2273  1.0000  -2.0404   0.0000   0.0000   0.0000   0.3752
  18.500   1.0923   0.27493   0.26814  -0.1589  0.2106  1.0000  -1.9595   0.0000   0.0000   0.0000   0.3729
  19.000   1.0981   0.28347   0.27669  -0.1611  0.1850  1.0000  -1.8783   0.0000   0.0000   0.0000   0.3733
  19.500   1.1096   0.29358   0.28688  -0.1626  0.1669  1.0000  -1.8345   0.0000   0.0000   0.0000   0.3721
  20.000   1.1178   0.30869   0.30201  -0.1648  0.1630  1.0000  -1.7737   0.0000   0.0000   0.0000   0.3723


