xflr5 v6.61

 Calculated polar for: franky

 1 1 Reynolds number fixed          Mach number fixed         

 xtrf =   1.000 (top)        1.000 (bottom)
 Mach =   0.000     Re =     0.060 e 6     Ncrit =   9.000

  alpha     CL        CD       CDp       Cm    Top Xtr Bot Xtr   Cpmin    Chinge    XCp    
 ------- -------- --------- --------- -------- ------- ------- -------- --------- ---------
   0.000   0.3986   0.02504   0.01725  -0.1150  0.9000  1.0000  -0.7480   0.0000   0.0000   0.0000   0.5380
   0.500   0.4794   0.02538   0.01714  -0.1197  0.8641  1.0000  -0.7116   0.0000   0.0000   0.0000   0.4984
   1.000   0.5694   0.02513   0.01652  -0.1247  0.8343  1.0000  -0.7862   0.0000   0.0000   0.0000   0.4672
   1.500   0.6524   0.02482   0.01595  -0.1282  0.8058  1.0000  -0.8634   0.0000   0.0000   0.0000   0.4441
   2.000   0.7293   0.02443   0.01536  -0.1301  0.7762  1.0000  -0.9452   0.0000   0.0000   0.0000   0.4256
   2.500   0.7979   0.02445   0.01524  -0.1310  0.7461  1.0000  -1.0281   0.0000   0.0000   0.0000   0.4108
   3.000   0.8610   0.02475   0.01544  -0.1310  0.7153  1.0000  -1.1142   0.0000   0.0000   0.0000   0.3983
   3.500   0.9179   0.02555   0.01629  -0.1305  0.6853  1.0000  -1.2027   0.0000   0.0000   0.0000   0.3878
   4.000   0.9726   0.02653   0.01721  -0.1296  0.6559  1.0000  -1.2982   0.0000   0.0000   0.0000   0.3784
   4.500   1.0274   0.02758   0.01824  -0.1287  0.6282  1.0000  -1.4064   0.0000   0.0000   0.0000   0.3698
   5.000   1.0854   0.02849   0.01907  -0.1279  0.6010  1.0000  -1.5332   0.0000   0.0000   0.0000   0.3618
   5.500   1.1356   0.02965   0.02027  -0.1262  0.5718  1.0000  -1.6675   0.0000   0.0000   0.0000   0.3545
   6.000   1.1774   0.03140   0.02247  -0.1238  0.5413  1.0000  -1.7901   0.0000   0.0000   0.0000   0.3480
   6.500   1.2208   0.03315   0.02441  -0.1214  0.5110  1.0000  -1.9357   0.0000   0.0000   0.0000   0.3417
   7.000   1.2662   0.03466   0.02607  -0.1190  0.4796  1.0000  -2.1051   0.0000   0.0000   0.0000   0.3355
   7.500   1.3116   0.03601   0.02754  -0.1165  0.4466  1.0000  -2.4025   0.0000   0.0000   0.0000   0.3296
   8.000   1.3555   0.03726   0.02904  -0.1136  0.4125  1.0000  -2.7876   0.0000   0.0000   0.0000   0.3239
   8.500   1.3964   0.03856   0.03049  -0.1104  0.3767  1.0000  -3.1932   0.0000   0.0000   0.0000   0.3184
   9.000   1.4354   0.03989   0.03195  -0.1069  0.3403  1.0000  -3.6137   0.0000   0.0000   0.0000   0.3130
   9.500   1.4747   0.04107   0.03317  -0.1034  0.3039  1.0000  -4.0534   0.0000   0.0000   0.0000   0.3078
  10.000   1.5132   0.04281   0.03488  -0.1002  0.2702  1.0000  -4.4945   0.0000   0.0000   0.0000   0.3030
  10.500   1.5436   0.04565   0.03789  -0.0964  0.2387  1.0000  -4.9065   0.0000   0.0000   0.0000   0.2984
  11.000   1.5622   0.04902   0.04153  -0.0915  0.2116  1.0000  -5.2430   0.0000   0.0000   0.0000   0.2937
  11.500   1.5704   0.05207   0.04478  -0.0858  0.1856  1.0000  -5.5286   0.0000   0.0000   0.0000   0.2889
  12.000   1.5550   0.05393   0.04670  -0.0778  0.1606  1.0000  -5.7297   0.0000   0.0000   0.0000   0.2834
  12.500   1.5278   0.05687   0.04963  -0.0707  0.1393  1.0000  -5.8641   0.0000   0.0000   0.0000   0.2787
  13.000   1.2796   0.10382   0.09823  -0.0832  0.1929  1.0000  -4.1770   0.0000   0.0000   0.0000   0.2976
  13.500   1.2053   0.12991   0.12423  -0.0946  0.1884  1.0000  -3.6867   0.0000   0.0000   0.0000   0.3109
  14.000   1.1450   0.15632   0.15049  -0.1078  0.1876  1.0000  -3.1874   0.0000   0.0000   0.0000   0.3266
  15.000   1.2847   0.12348   0.11847  -0.0861  0.1064  1.0000  -4.9494   0.0000   0.0000   0.0000   0.2954
  15.500   1.2409   0.14219   0.13721  -0.0958  0.1014  1.0000  -4.6161   0.0000   0.0000   0.0000   0.3051
  16.500   1.1434   0.19633   0.19093  -0.1241  0.1002  1.0000  -3.3090   0.0000   0.0000   0.0000   0.3367
  17.000   1.1157   0.21723   0.21169  -0.1368  0.0966  1.0000  -2.8003   0.0000   0.0000   0.0000   0.3508
  17.500   1.1189   0.22690   0.22135  -0.1407  0.0787  1.0000  -2.6722   0.0000   0.0000   0.0000   0.3530
  18.000   1.1173   0.24238   0.23681  -0.1465  0.0794  1.0000  -2.4125   0.0000   0.0000   0.0000   0.3579
  18.500   1.1368   0.27386   0.26843  -0.1491  0.1201  1.0000  -2.0997   0.0000   0.0000   0.0000   0.3579
  19.000   1.1337   0.28487   0.27943  -0.1550  0.1198  1.0000  -1.9661   0.0000   0.0000   0.0000   0.3627
  19.500   1.1157   0.29010   0.28460  -0.1640  0.1174  1.0000  -1.7755   0.0000   0.0000   0.0000   0.3722
  20.000   1.1155   0.29999   0.29451  -0.1690  0.1105  1.0000  -1.6865   0.0000   0.0000   0.0000   0.3760


