xflr5 v6.61

 Calculated polar for: franky 2

 1 1 Reynolds number fixed          Mach number fixed         

 xtrf =   1.000 (top)        1.000 (bottom)
 Mach =   0.000     Re =     0.100 e 6     Ncrit =   9.000

  alpha     CL        CD       CDp       Cm    Top Xtr Bot Xtr   Cpmin    Chinge    XCp    
 ------- -------- --------- --------- -------- ------- ------- -------- --------- ---------
   0.000   0.8736   0.01642   0.00890  -0.2023  0.7100  0.5659  -1.0981   0.0000   0.0000   0.0000   0.4801
   0.500   0.9314   0.01665   0.00897  -0.2018  0.6678  0.6838  -1.1532   0.0000   0.0000   0.0000   0.4645
   1.000   0.9605   0.01638   0.00881  -0.1947  0.6372  1.0000  -1.1900   0.0000   0.0000   0.0000   0.4499
   1.500   1.0246   0.01732   0.00921  -0.1967  0.6092  1.0000  -1.2487   0.0000   0.0000   0.0000   0.4386
   2.000   1.0826   0.01838   0.00999  -0.1974  0.5875  1.0000  -1.3091   0.0000   0.0000   0.0000   0.4282
   2.500   1.1423   0.01958   0.01087  -0.1981  0.5677  1.0000  -1.3762   0.0000   0.0000   0.0000   0.4187
   3.000   1.1933   0.02059   0.01186  -0.1973  0.5509  1.0000  -1.4400   0.0000   0.0000   0.0000   0.4100
   3.500   1.2491   0.02172   0.01281  -0.1973  0.5365  1.0000  -1.5174   0.0000   0.0000   0.0000   0.4020
   4.000   1.3007   0.02320   0.01428  -0.1968  0.5229  1.0000  -1.5969   0.0000   0.0000   0.0000   0.3947
   4.500   1.3504   0.02435   0.01548  -0.1958  0.5087  1.0000  -1.6817   0.0000   0.0000   0.0000   0.3877
   5.000   1.4053   0.02587   0.01684  -0.1957  0.4954  1.0000  -1.7846   0.0000   0.0000   0.0000   0.3812
   5.500   1.4488   0.02736   0.01872  -0.1938  0.4829  1.0000  -1.8828   0.0000   0.0000   0.0000   0.3750
   6.000   1.4969   0.02850   0.01993  -0.1925  0.4687  1.0000  -2.0075   0.0000   0.0000   0.0000   0.3691
   6.500   1.5469   0.03038   0.02178  -0.1916  0.4552  1.0000  -2.1579   0.0000   0.0000   0.0000   0.3636
   7.000   1.5850   0.03168   0.02342  -0.1887  0.4409  1.0000  -2.2937   0.0000   0.0000   0.0000   0.3580
   7.500   1.6372   0.03258   0.02439  -0.1878  0.4262  1.0000  -2.4608   0.0000   0.0000   0.0000   0.3528
   8.000   1.6715   0.03442   0.02657  -0.1844  0.4106  1.0000  -2.5957   0.0000   0.0000   0.0000   0.3476
   8.500   1.7192   0.03487   0.02705  -0.1826  0.3936  1.0000  -2.7836   0.0000   0.0000   0.0000   0.3426
   9.000   1.7518   0.03644   0.02890  -0.1787  0.3761  1.0000  -2.9437   0.0000   0.0000   0.0000   0.3375
   9.500   1.7999   0.03641   0.02880  -0.1768  0.3570  1.0000  -3.1458   0.0000   0.0000   0.0000   0.3327
  10.000   1.8212   0.03775   0.03052  -0.1711  0.3372  1.0000  -3.3390   0.0000   0.0000   0.0000   0.3275
  10.500   1.8577   0.03814   0.03103  -0.1674  0.3168  1.0000  -3.7474   0.0000   0.0000   0.0000   0.3227
  11.000   1.8750   0.03883   0.03193  -0.1609  0.2958  1.0000  -4.0615   0.0000   0.0000   0.0000   0.3174
  11.500   1.8759   0.04066   0.03404  -0.1523  0.2756  1.0000  -4.3043   0.0000   0.0000   0.0000   0.3119
  12.000   1.8791   0.04244   0.03586  -0.1445  0.2548  1.0000  -4.5657   0.0000   0.0000   0.0000   0.3066
  12.500   1.8794   0.04490   0.03822  -0.1373  0.2325  1.0000  -4.8177   0.0000   0.0000   0.0000   0.3017
  13.000   1.8573   0.04940   0.04311  -0.1293  0.2146  1.0000  -4.9554   0.0000   0.0000   0.0000   0.2972
  13.500   1.8453   0.05465   0.04850  -0.1239  0.1969  1.0000  -5.1334   0.0000   0.0000   0.0000   0.2937
  14.000   1.8452   0.05959   0.05335  -0.1199  0.1797  1.0000  -5.3700   0.0000   0.0000   0.0000   0.2904
  14.500   1.8142   0.06734   0.06168  -0.1165  0.1685  1.0000  -5.4317   0.0000   0.0000   0.0000   0.2885
  15.000   1.8045   0.07371   0.06804  -0.1145  0.1544  1.0000  -5.6130   0.0000   0.0000   0.0000   0.2866
  15.500   1.7710   0.08357   0.07835  -0.1150  0.1452  1.0000  -5.6480   0.0000   0.0000   0.0000   0.2869
  16.000   1.7661   0.08991   0.08464  -0.1149  0.1327  1.0000  -5.8536   0.0000   0.0000   0.0000   0.2858
  16.500   1.7246   0.10252   0.09781  -0.1190  0.1267  1.0000  -5.8032   0.0000   0.0000   0.0000   0.2885
  17.000   1.7313   0.10686   0.10192  -0.1194  0.1130  1.0000  -6.0866   0.0000   0.0000   0.0000   0.2871
  17.500   1.6821   0.12175   0.11743  -0.1270  0.1095  1.0000  -5.9416   0.0000   0.0000   0.0000   0.2925
  18.000   1.6057   0.14408   0.14036  -0.1399  0.1089  1.0000  -5.5303   0.0000   0.0000   0.0000   0.3031
  18.500   1.6528   0.13998   0.13595  -0.1365  0.0927  1.0000  -6.1203   0.0000   0.0000   0.0000   0.2970
  19.000   1.5505   0.17200   0.16859  -0.1556  0.0939  1.0000  -5.4098   0.0000   0.0000   0.0000   0.3142
  19.500   1.2667   0.29455   0.29085  -0.2155  0.1436  1.0000  -2.2112   0.0000   0.0000   0.0000   0.3891
  20.000   1.3107   0.30781   0.30435  -0.2081  0.1342  1.0000  -2.5822   0.0000   0.0000   0.0000   0.3762


