xflr5 v6.61

 Calculated polar for: franky 2

 1 1 Reynolds number fixed          Mach number fixed         

 xtrf =   1.000 (top)        1.000 (bottom)
 Mach =   0.000     Re =     0.080 e 6     Ncrit =   9.000

  alpha     CL        CD       CDp       Cm    Top Xtr Bot Xtr   Cpmin    Chinge    XCp    
 ------- -------- --------- --------- -------- ------- ------- -------- --------- ---------
   0.000   0.8371   0.01896   0.01146  -0.1969  0.7510  0.5964  -1.0662   0.0000   0.0000   0.0000   0.4839
   0.500   0.9051   0.01854   0.01089  -0.1976  0.7109  0.7267  -1.1280   0.0000   0.0000   0.0000   0.4662
   1.000   0.9463   0.01825   0.01048  -0.1936  0.6775  1.0000  -1.1706   0.0000   0.0000   0.0000   0.4519
   1.500   1.0121   0.01929   0.01093  -0.1958  0.6464  1.0000  -1.2301   0.0000   0.0000   0.0000   0.4401
   2.000   1.0705   0.02054   0.01185  -0.1965  0.6226  1.0000  -1.2893   0.0000   0.0000   0.0000   0.4296
   2.500   1.1328   0.02189   0.01277  -0.1976  0.6026  1.0000  -1.3577   0.0000   0.0000   0.0000   0.4199
   3.000   1.1807   0.02312   0.01409  -0.1964  0.5831  1.0000  -1.4178   0.0000   0.0000   0.0000   0.4112
   3.500   1.2397   0.02469   0.01535  -0.1971  0.5676  1.0000  -1.4970   0.0000   0.0000   0.0000   0.4031
   4.000   1.2833   0.02632   0.01716  -0.1954  0.5531  1.0000  -1.5659   0.0000   0.0000   0.0000   0.3958
   4.500   1.3360   0.02767   0.01842  -0.1948  0.5376  1.0000  -1.6530   0.0000   0.0000   0.0000   0.3887
   5.000   1.3830   0.02983   0.02063  -0.1938  0.5248  1.0000  -1.7420   0.0000   0.0000   0.0000   0.3823
   5.500   1.4236   0.03159   0.02275  -0.1915  0.5094  1.0000  -1.8332   0.0000   0.0000   0.0000   0.3760
   6.000   1.4789   0.03328   0.02431  -0.1913  0.4955  1.0000  -1.9641   0.0000   0.0000   0.0000   0.3700
   6.500   1.5091   0.03574   0.02716  -0.1877  0.4808  1.0000  -2.0717   0.0000   0.0000   0.0000   0.3644
   7.000   1.5553   0.03713   0.02863  -0.1860  0.4652  1.0000  -2.2206   0.0000   0.0000   0.0000   0.3588
   7.500   1.5919   0.03976   0.03145  -0.1833  0.4504  1.0000  -2.3531   0.0000   0.0000   0.0000   0.3536
   8.000   1.6262   0.04141   0.03351  -0.1798  0.4328  1.0000  -2.4860   0.0000   0.0000   0.0000   0.3482
   8.500   1.6698   0.04322   0.03541  -0.1777  0.4163  1.0000  -2.6491   0.0000   0.0000   0.0000   0.3432
   9.000   1.6996   0.04453   0.03701  -0.1734  0.3969  1.0000  -2.8005   0.0000   0.0000   0.0000   0.3379
   9.500   1.7348   0.04611   0.03875  -0.1699  0.3781  1.0000  -2.9660   0.0000   0.0000   0.0000   0.3329
  10.000   1.7916   0.04522   0.03779  -0.1686  0.3566  1.0000  -3.1909   0.0000   0.0000   0.0000   0.3280
  10.500   1.7879   0.04811   0.04133  -0.1601  0.3368  1.0000  -3.3746   0.0000   0.0000   0.0000   0.3226
  11.000   1.8289   0.04791   0.04114  -0.1567  0.3148  1.0000  -3.7880   0.0000   0.0000   0.0000   0.3177
  11.500   1.8720   0.04731   0.04038  -0.1535  0.2900  1.0000  -4.2209   0.0000   0.0000   0.0000   0.3129
  12.000   1.8260   0.05175   0.04545  -0.1403  0.2751  1.0000  -4.2439   0.0000   0.0000   0.0000   0.3068
  12.500   1.8367   0.05360   0.04733  -0.1343  0.2545  1.0000  -4.5313   0.0000   0.0000   0.0000   0.3021
  13.000   1.8519   0.05537   0.04896  -0.1293  0.2320  1.0000  -4.8477   0.0000   0.0000   0.0000   0.2977
  13.500   1.7999   0.06334   0.05752  -0.1217  0.2198  1.0000  -4.8205   0.0000   0.0000   0.0000   0.2945
  14.000   1.5670   0.10175   0.09681  -0.1279  0.2231  1.0000  -3.7712   0.0000   0.0000   0.0000   0.3077
  15.000   1.7564   0.08396   0.07864  -0.1140  0.1787  1.0000  -5.2470   0.0000   0.0000   0.0000   0.2884
  15.500   1.5981   0.11498   0.11035  -0.1258  0.1791  1.0000  -4.5009   0.0000   0.0000   0.0000   0.3013
  16.000   1.2788   0.20594   0.20092  -0.1790  0.1761  1.0000  -2.1929   0.0000   0.0000   0.0000   0.3651
  16.500   1.2751   0.22094   0.21603  -0.1846  0.1782  1.0000  -2.1769   0.0000   0.0000   0.0000   0.3692
  17.000   1.2299   0.24667   0.24184  -0.2005  0.2146  1.0000  -1.7827   0.0000   0.0000   0.0000   0.3876
  17.500   1.2844   0.26284   0.25824  -0.1950  0.2062  1.0000  -2.1626   0.0000   0.0000   0.0000   0.3751
  18.000   1.2389   0.26697   0.26233  -0.2073  0.1969  1.0000  -1.9000   0.0000   0.0000   0.0000   0.3899
  18.500   1.2538   0.27566   0.27116  -0.2083  0.1865  1.0000  -2.0393   0.0000   0.0000   0.0000   0.3875
  19.000   1.2884   0.29341   0.28922  -0.2054  0.1806  1.0000  -2.3083   0.0000   0.0000   0.0000   0.3796
  19.500   1.2551   0.29728   0.29296  -0.2151  0.1656  1.0000  -2.0946   0.0000   0.0000   0.0000   0.3907


