xflr5 v6.61

 Calculated polar for: franky

 1 1 Reynolds number fixed          Mach number fixed         

 xtrf =   1.000 (top)        1.000 (bottom)
 Mach =   0.000     Re =     0.080 e 6     Ncrit =   9.000

  alpha     CL        CD       CDp       Cm    Top Xtr Bot Xtr   Cpmin    Chinge    XCp    
 ------- -------- --------- --------- -------- ------- ------- -------- --------- ---------
   0.000   0.4738   0.01957   0.01265  -0.1221  0.8660  1.0000  -0.7103   0.0000   0.0000   0.0000   0.5068
   0.500   0.5615   0.01887   0.01154  -0.1265  0.8387  1.0000  -0.7816   0.0000   0.0000   0.0000   0.4738
   1.000   0.6415   0.01825   0.01061  -0.1293  0.8097  1.0000  -0.8539   0.0000   0.0000   0.0000   0.4496
   1.500   0.7174   0.01769   0.00977  -0.1312  0.7773  1.0000  -0.9308   0.0000   0.0000   0.0000   0.4303
   2.000   0.7861   0.01759   0.00938  -0.1321  0.7430  1.0000  -1.0104   0.0000   0.0000   0.0000   0.4150
   2.500   0.8477   0.01795   0.00946  -0.1321  0.7073  1.0000  -1.0902   0.0000   0.0000   0.0000   0.4023
   3.000   0.9040   0.01866   0.00996  -0.1315  0.6736  1.0000  -1.1737   0.0000   0.0000   0.0000   0.3914
   3.500   0.9576   0.01947   0.01071  -0.1306  0.6415  1.0000  -1.2646   0.0000   0.0000   0.0000   0.3818
   4.000   1.0082   0.02043   0.01161  -0.1294  0.6111  1.0000  -1.3616   0.0000   0.0000   0.0000   0.3733
   4.500   1.0579   0.02154   0.01270  -0.1282  0.5825  1.0000  -1.4700   0.0000   0.0000   0.0000   0.3655
   5.000   1.1082   0.02269   0.01383  -0.1270  0.5554  1.0000  -1.5921   0.0000   0.0000   0.0000   0.3583
   5.500   1.1608   0.02380   0.01484  -0.1259  0.5290  1.0000  -1.7342   0.0000   0.0000   0.0000   0.3516
   6.000   1.2098   0.02480   0.01612  -0.1243  0.5004  1.0000  -1.8789   0.0000   0.0000   0.0000   0.3453
   6.500   1.2545   0.02599   0.01750  -0.1222  0.4712  1.0000  -2.0350   0.0000   0.0000   0.0000   0.3393
   7.000   1.2997   0.02718   0.01881  -0.1201  0.4411  1.0000  -2.2265   0.0000   0.0000   0.0000   0.3336
   7.500   1.3445   0.02825   0.01997  -0.1178  0.4095  1.0000  -2.6356   0.0000   0.0000   0.0000   0.3281
   8.000   1.3878   0.02925   0.02115  -0.1153  0.3770  1.0000  -3.0308   0.0000   0.0000   0.0000   0.3228
   8.500   1.4281   0.03029   0.02226  -0.1123  0.3420  1.0000  -3.4585   0.0000   0.0000   0.0000   0.3176
   9.000   1.4654   0.03140   0.02341  -0.1089  0.3061  1.0000  -3.8904   0.0000   0.0000   0.0000   0.3125
   9.500   1.4998   0.03286   0.02486  -0.1053  0.2716  1.0000  -4.3185   0.0000   0.0000   0.0000   0.3075
  10.000   1.5301   0.03499   0.02693  -0.1015  0.2380  1.0000  -4.7306   0.0000   0.0000   0.0000   0.3028
  10.500   1.5468   0.03719   0.02947  -0.0960  0.2068  1.0000  -5.1011   0.0000   0.0000   0.0000   0.2978
  11.000   1.5486   0.03909   0.03146  -0.0891  0.1780  1.0000  -5.4017   0.0000   0.0000   0.0000   0.2924
  11.500   1.5424   0.04176   0.03425  -0.0820  0.1552  1.0000  -5.6453   0.0000   0.0000   0.0000   0.2872
  12.000   1.5317   0.04541   0.03806  -0.0761  0.1353  1.0000  -5.8473   0.0000   0.0000   0.0000   0.2828
  12.500   1.5129   0.05042   0.04326  -0.0718  0.1163  1.0000  -5.9833   0.0000   0.0000   0.0000   0.2796
  13.000   1.4858   0.05770   0.05079  -0.0696  0.0967  1.0000  -6.0148   0.0000   0.0000   0.0000   0.2780
  13.500   1.4452   0.06845   0.06173  -0.0705  0.0746  1.0000  -5.8836   0.0000   0.0000   0.0000   0.2789
  14.000   1.4053   0.08053   0.07389  -0.0729  0.0577  1.0000  -5.6866   0.0000   0.0000   0.0000   0.2810
  14.500   1.1481   0.15808   0.15318  -0.1118  0.1469  1.0000  -3.3845   0.0000   0.0000   0.0000   0.3287
  15.000   1.1363   0.17052   0.16564  -0.1174  0.1367  1.0000  -3.3064   0.0000   0.0000   0.0000   0.3340
  15.500   1.1151   0.18766   0.18278  -0.1267  0.1361  1.0000  -3.0218   0.0000   0.0000   0.0000   0.3440
  16.000   1.1020   0.20223   0.19737  -0.1347  0.1335  1.0000  -2.7929   0.0000   0.0000   0.0000   0.3522
  16.500   1.3123   0.13538   0.13022  -0.0912  0.0378  1.0000  -5.2006   0.0000   0.0000   0.0000   0.2941
  17.000   1.1788   0.18545   0.18099  -0.1247  0.0473  1.0000  -3.7899   0.0000   0.0000   0.0000   0.3317
  17.500   1.1447   0.21244   0.20772  -0.1373  0.0479  1.0000  -3.0798   0.0000   0.0000   0.0000   0.3462
  18.000   1.1374   0.23006   0.22530  -0.1443  0.0486  1.0000  -2.7546   0.0000   0.0000   0.0000   0.3527
  18.500   1.1423   0.24322   0.23858  -0.1471  0.0505  1.0000  -2.6571   0.0000   0.0000   0.0000   0.3539
  19.000   1.1155   0.27466   0.26987  -0.1624  0.0892  1.0000  -1.8274   0.0000   0.0000   0.0000   0.3714
  19.500   1.1227   0.28586   0.28111  -0.1656  0.0869  1.0000  -1.7890   0.0000   0.0000   0.0000   0.3724
  20.000   1.1333   0.29707   0.29238  -0.1671  0.0845  1.0000  -1.8027   0.0000   0.0000   0.0000   0.3714


