xflr5 v6.61

 Calculated polar for: franky 2

 1 1 Reynolds number fixed          Mach number fixed         

 xtrf =   1.000 (top)        1.000 (bottom)
 Mach =   0.000     Re =     0.040 e 6     Ncrit =   9.000

  alpha     CL        CD       CDp       Cm    Top Xtr Bot Xtr   Cpmin    Chinge    XCp    
 ------- -------- --------- --------- -------- ------- ------- -------- --------- ---------
   0.000   0.5429   0.04394   0.03571  -0.1699  0.8403  0.4838  -1.0375   0.0000   0.0000   0.0000   0.5629
   0.500   0.5882   0.04365   0.03570  -0.1648  0.8123  0.6797  -0.8392   0.0000   0.0000   0.0000   0.5294
   1.000   0.6225   0.04353   0.03574  -0.1606  0.7878  0.8268  -0.8652   0.0000   0.0000   0.0000   0.5064
   1.500   0.7303   0.04487   0.03602  -0.1750  0.7642  1.0000  -0.9352   0.0000   0.0000   0.0000   0.4873
   2.000   0.8199   0.04565   0.03605  -0.1803  0.7434  1.0000  -1.0108   0.0000   0.0000   0.0000   0.4669
   2.500   0.8294   0.05113   0.04132  -0.1783  0.7193  1.0000  -1.0127   0.0000   0.0000   0.0000   0.4614
   3.000   0.8973   0.05346   0.04330  -0.1808  0.7052  1.0000  -1.0765   0.0000   0.0000   0.0000   0.4474
   3.500   0.8811   0.06100   0.05083  -0.1777  0.6861  1.0000  -1.0550   0.0000   0.0000   0.0000   0.4470
   4.000   0.9520   0.06330   0.05290  -0.1797  0.6718  1.0000  -1.1317   0.0000   0.0000   0.0000   0.4334
   4.500   0.9089   0.07351   0.06322  -0.1767  0.6636  1.0000  -1.0787   0.0000   0.0000   0.0000   0.4386
   5.000   0.9150   0.08007   0.06979  -0.1759  0.6522  1.0000  -1.0829   0.0000   0.0000   0.0000   0.4359
   5.500   0.9455   0.08600   0.07581  -0.1768  0.6445  1.0000  -1.1172   0.0000   0.0000   0.0000   0.4300
   6.000   0.9370   0.09452   0.08441  -0.1768  0.6454  1.0000  -1.1015   0.0000   0.0000   0.0000   0.4312
   6.500   0.9728   0.10160   0.09148  -0.1782  0.6369  1.0000  -1.1469   0.0000   0.0000   0.0000   0.4250
   8.000   0.8873   0.12832   0.11871  -0.1804  0.7199  1.0000  -1.0043   0.0000   0.0000   0.0000   0.4435
   8.500   0.9117   0.13420   0.12464  -0.1806  0.6894  1.0000  -1.0412   0.0000   0.0000   0.0000   0.4376
   9.000   0.9400   0.14142   0.13192  -0.1817  0.6656  1.0000  -1.0831   0.0000   0.0000   0.0000   0.4321
   9.500   1.0220   0.15571   0.14630  -0.1872  0.6387  1.0000  -1.2077   0.0000   0.0000   0.0000   0.4213
  10.000   1.0193   0.15726   0.14798  -0.1843  0.6058  1.0000  -1.2205   0.0000   0.0000   0.0000   0.4182
  10.500   1.0032   0.15957   0.15039  -0.1825  0.5794  1.0000  -1.2069   0.0000   0.0000   0.0000   0.4186
  11.000   1.0195   0.16623   0.15733  -0.1830  0.5531  1.0000  -1.2416   0.0000   0.0000   0.0000   0.4154
  11.500   1.1066   0.18593   0.17724  -0.1869  0.5299  1.0000  -1.3900   0.0000   0.0000   0.0000   0.4041
  12.000   1.0640   0.18026   0.17164  -0.1846  0.5021  1.0000  -1.3203   0.0000   0.0000   0.0000   0.4078
  12.500   1.0696   0.18615   0.17764  -0.1857  0.4792  1.0000  -1.3292   0.0000   0.0000   0.0000   0.4072
  13.000   1.1529   0.20986   0.20163  -0.1875  0.4571  1.0000  -1.4934   0.0000   0.0000   0.0000   0.3954
  13.500   1.1018   0.19960   0.19137  -0.1884  0.4345  1.0000  -1.3894   0.0000   0.0000   0.0000   0.4028
  14.000   1.1445   0.21754   0.20952  -0.1894  0.4200  1.0000  -1.4617   0.0000   0.0000   0.0000   0.3966
  14.500   1.1282   0.21459   0.20664  -0.1921  0.3986  1.0000  -1.4193   0.0000   0.0000   0.0000   0.4004
  15.000   1.1580   0.22925   0.22166  -0.1931  0.3844  1.0000  -1.4838   0.0000   0.0000   0.0000   0.3960
  15.500   1.1546   0.23057   0.22309  -0.1958  0.3629  1.0000  -1.4662   0.0000   0.0000   0.0000   0.3979
  16.000   1.2100   0.25763   0.25043  -0.1958  0.3531  1.0000  -1.6019   0.0000   0.0000   0.0000   0.3893
  16.500   1.1699   0.24804   0.24081  -0.2015  0.3414  1.0000  -1.4842   0.0000   0.0000   0.0000   0.3987
  18.500   1.2464   0.30152   0.29502  -0.2068  0.2899  1.0000  -1.8866   0.0000   0.0000   0.0000   0.3884
  19.000   1.2110   0.29469   0.28818  -0.2131  0.2765  1.0000  -1.7574   0.0000   0.0000   0.0000   0.3973
  19.500   1.2407   0.31094   0.30470  -0.2119  0.2628  1.0000  -1.9425   0.0000   0.0000   0.0000   0.3911
  20.000   1.2259   0.31884   0.31266  -0.2161  0.2575  1.0000  -1.8889   0.0000   0.0000   0.0000   0.3955


