xflr5 v6.61

 Calculated polar for: franky 2

 1 1 Reynolds number fixed          Mach number fixed         

 xtrf =   1.000 (top)        1.000 (bottom)
 Mach =   0.000     Re =     0.130 e 6     Ncrit =   9.000

  alpha     CL        CD       CDp       Cm    Top Xtr Bot Xtr   Cpmin    Chinge    XCp    
 ------- -------- --------- --------- -------- ------- ------- -------- --------- ---------
   0.000   0.8896   0.01470   0.00722  -0.2046  0.6605  0.5229  -1.1145   0.0000   0.0000   0.0000   0.4784
   0.500   0.9453   0.01504   0.00746  -0.2040  0.6216  0.6292  -1.1695   0.0000   0.0000   0.0000   0.4636
   1.000   0.9842   0.01514   0.00774  -0.1994  0.5940  0.8255  -1.2138   0.0000   0.0000   0.0000   0.4497
   1.500   1.0325   0.01560   0.00784  -0.1975  0.5709  1.0000  -1.2637   0.0000   0.0000   0.0000   0.4377
   2.000   1.0899   0.01643   0.00844  -0.1979  0.5513  1.0000  -1.3244   0.0000   0.0000   0.0000   0.4274
   2.500   1.1478   0.01743   0.00915  -0.1983  0.5325  1.0000  -1.3905   0.0000   0.0000   0.0000   0.4180
   3.000   1.2019   0.01829   0.00997  -0.1981  0.5185  1.0000  -1.4574   0.0000   0.0000   0.0000   0.4093
   3.500   1.2564   0.01916   0.01073  -0.1978  0.5051  1.0000  -1.5347   0.0000   0.0000   0.0000   0.4013
   4.000   1.3122   0.02048   0.01188  -0.1980  0.4915  1.0000  -1.6204   0.0000   0.0000   0.0000   0.3941
   4.500   1.3622   0.02131   0.01284  -0.1970  0.4799  1.0000  -1.7068   0.0000   0.0000   0.0000   0.3871
   5.000   1.4144   0.02219   0.01379  -0.1962  0.4671  1.0000  -1.8088   0.0000   0.0000   0.0000   0.3805
   5.500   1.4670   0.02371   0.01527  -0.1959  0.4549  1.0000  -1.9218   0.0000   0.0000   0.0000   0.3746
   6.000   1.5129   0.02453   0.01630  -0.1941  0.4425  1.0000  -2.0478   0.0000   0.0000   0.0000   0.3686
   6.500   1.5632   0.02535   0.01711  -0.1930  0.4296  1.0000  -2.2053   0.0000   0.0000   0.0000   0.3630
   7.000   1.6106   0.02685   0.01871  -0.1917  0.4170  1.0000  -2.3595   0.0000   0.0000   0.0000   0.3577
   7.500   1.6535   0.02756   0.01975  -0.1893  0.4026  1.0000  -2.5110   0.0000   0.0000   0.0000   0.3524
   8.000   1.7049   0.02882   0.02087  -0.1886  0.3869  1.0000  -2.6868   0.0000   0.0000   0.0000   0.3476
   8.500   1.7392   0.02934   0.02179  -0.1846  0.3722  1.0000  -2.8511   0.0000   0.0000   0.0000   0.3423
   9.000   1.7863   0.02994   0.02226  -0.1829  0.3548  1.0000  -3.0479   0.0000   0.0000   0.0000   0.3376
   9.500   1.8145   0.03063   0.02333  -0.1780  0.3376  1.0000  -3.2070   0.0000   0.0000   0.0000   0.3324
  10.000   1.8516   0.03132   0.02409  -0.1746  0.3190  1.0000  -3.5429   0.0000   0.0000   0.0000   0.3276
  10.500   1.8705   0.03210   0.02522  -0.1682  0.3001  1.0000  -3.8593   0.0000   0.0000   0.0000   0.3223
  11.000   1.8845   0.03333   0.02660  -0.1612  0.2803  1.0000  -4.1608   0.0000   0.0000   0.0000   0.3170
  11.500   1.8905   0.03481   0.02807  -0.1533  0.2588  1.0000  -4.4367   0.0000   0.0000   0.0000   0.3116
  12.000   1.8867   0.03718   0.03058  -0.1449  0.2364  1.0000  -4.6700   0.0000   0.0000   0.0000   0.3063
  12.500   1.8789   0.04066   0.03425  -0.1374  0.2141  1.0000  -4.8822   0.0000   0.0000   0.0000   0.3016
  13.000   1.8673   0.04522   0.03894  -0.1309  0.1936  1.0000  -5.0744   0.0000   0.0000   0.0000   0.2976
  13.500   1.8518   0.05084   0.04460  -0.1257  0.1754  1.0000  -5.2461   0.0000   0.0000   0.0000   0.2942
  14.000   1.8327   0.05739   0.05118  -0.1220  0.1592  1.0000  -5.3979   0.0000   0.0000   0.0000   0.2918
  14.500   1.8104   0.06517   0.05939  -0.1201  0.1456  1.0000  -5.5117   0.0000   0.0000   0.0000   0.2904
  15.000   1.7917   0.07324   0.06745  -0.1193  0.1328  1.0000  -5.6472   0.0000   0.0000   0.0000   0.2894
  15.500   1.7718   0.08246   0.07706  -0.1204  0.1233  1.0000  -5.7607   0.0000   0.0000   0.0000   0.2896
  16.000   1.7649   0.08943   0.08395  -0.1203  0.1131  1.0000  -5.9520   0.0000   0.0000   0.0000   0.2886
  16.500   1.7442   0.09947   0.09447  -0.1233  0.1069  1.0000  -6.0406   0.0000   0.0000   0.0000   0.2899
  17.000   1.7274   0.10884   0.10406  -0.1267  0.0991  1.0000  -6.1545   0.0000   0.0000   0.0000   0.2912
  17.500   1.7157   0.11711   0.11245  -0.1295  0.0913  1.0000  -6.2916   0.0000   0.0000   0.0000   0.2921
  18.000   1.6955   0.12744   0.12316  -0.1347  0.0852  1.0000  -6.3481   0.0000   0.0000   0.0000   0.2948
  18.500   1.6856   0.13566   0.13147  -0.1390  0.0782  1.0000  -6.4787   0.0000   0.0000   0.0000   0.2965
  19.000   1.6662   0.14649   0.14261  -0.1449  0.0721  1.0000  -6.5068   0.0000   0.0000   0.0000   0.2997
  19.500   1.6431   0.15913   0.15555  -0.1524  0.0654  1.0000  -6.4912   0.0000   0.0000   0.0000   0.3042
  20.000   1.6239   0.17117   0.16769  -0.1593  0.0570  1.0000  -6.4826   0.0000   0.0000   0.0000   0.3083


