xflr5 v6.61

 Calculated polar for: franky 2

 1 1 Reynolds number fixed          Mach number fixed         

 xtrf =   1.000 (top)        1.000 (bottom)
 Mach =   0.000     Re =     0.160 e 6     Ncrit =   9.000

  alpha     CL        CD       CDp       Cm    Top Xtr Bot Xtr   Cpmin    Chinge    XCp    
 ------- -------- --------- --------- -------- ------- ------- -------- --------- ---------
   0.000   0.8964   0.01374   0.00625  -0.2056  0.6255  0.4904  -1.1228   0.0000   0.0000   0.0000   0.4777
   0.500   0.9514   0.01409   0.00654  -0.2050  0.5903  0.5890  -1.1781   0.0000   0.0000   0.0000   0.4632
   1.000   1.0001   0.01438   0.00696  -0.2029  0.5643  0.7573  -1.2296   0.0000   0.0000   0.0000   0.4499
   1.500   1.0355   0.01437   0.00702  -0.1979  0.5451  1.0000  -1.2717   0.0000   0.0000   0.0000   0.4375
   2.000   1.0947   0.01526   0.00754  -0.1986  0.5259  1.0000  -1.3343   0.0000   0.0000   0.0000   0.4272
   2.500   1.1496   0.01587   0.00809  -0.1984  0.5097  1.0000  -1.3977   0.0000   0.0000   0.0000   0.4177
   3.000   1.2079   0.01695   0.00885  -0.1990  0.4946  1.0000  -1.4691   0.0000   0.0000   0.0000   0.4092
   3.500   1.2613   0.01762   0.00956  -0.1985  0.4838  1.0000  -1.5455   0.0000   0.0000   0.0000   0.4012
   4.000   1.3144   0.01830   0.01018  -0.1979  0.4710  1.0000  -1.6304   0.0000   0.0000   0.0000   0.3937
   4.500   1.3708   0.01960   0.01129  -0.1982  0.4579  1.0000  -1.7240   0.0000   0.0000   0.0000   0.3870
   5.000   1.4204   0.02024   0.01219  -0.1970  0.4482  1.0000  -1.8234   0.0000   0.0000   0.0000   0.3804
   5.500   1.4709   0.02093   0.01292  -0.1960  0.4362  1.0000  -1.9363   0.0000   0.0000   0.0000   0.3742
   6.000   1.5243   0.02216   0.01402  -0.1957  0.4231  1.0000  -2.0779   0.0000   0.0000   0.0000   0.3685
   6.500   1.5706   0.02293   0.01502  -0.1939  0.4129  1.0000  -2.2284   0.0000   0.0000   0.0000   0.3629
   7.000   1.6175   0.02352   0.01569  -0.1922  0.3999  1.0000  -2.3853   0.0000   0.0000   0.0000   0.3574
   7.500   1.6676   0.02476   0.01698  -0.1914  0.3858  1.0000  -2.5499   0.0000   0.0000   0.0000   0.3525
   8.000   1.7076   0.02522   0.01773  -0.1883  0.3729  1.0000  -2.7079   0.0000   0.0000   0.0000   0.3472
   8.500   1.7520   0.02578   0.01824  -0.1862  0.3573  1.0000  -2.8957   0.0000   0.0000   0.0000   0.3423
   9.000   1.7879   0.02653   0.01925  -0.1826  0.3415  1.0000  -3.0684   0.0000   0.0000   0.0000   0.3372
   9.500   1.8250   0.02711   0.01981  -0.1792  0.3242  1.0000  -3.2491   0.0000   0.0000   0.0000   0.3323
  10.000   1.8529   0.02798   0.02111  -0.1743  0.3074  1.0000  -3.5806   0.0000   0.0000   0.0000   0.3273
  10.500   1.8768   0.02895   0.02208  -0.1688  0.2886  1.0000  -3.9216   0.0000   0.0000   0.0000   0.3222
  11.000   1.8861   0.03006   0.02344  -0.1609  0.2680  1.0000  -4.2062   0.0000   0.0000   0.0000   0.3167
  11.500   1.8920   0.03190   0.02541  -0.1533  0.2440  1.0000  -4.4813   0.0000   0.0000   0.0000   0.3114
  12.000   1.8912   0.03462   0.02818  -0.1458  0.2181  1.0000  -4.7306   0.0000   0.0000   0.0000   0.3065
  12.500   1.8840   0.03838   0.03198  -0.1387  0.1937  1.0000  -4.9506   0.0000   0.0000   0.0000   0.3020
  13.000   1.8720   0.04326   0.03693  -0.1326  0.1726  1.0000  -5.1459   0.0000   0.0000   0.0000   0.2982
  13.500   1.8537   0.04949   0.04318  -0.1278  0.1551  1.0000  -5.3068   0.0000   0.0000   0.0000   0.2952
  14.000   1.8381   0.05630   0.05020  -0.1249  0.1404  1.0000  -5.4741   0.0000   0.0000   0.0000   0.2931
  14.500   1.8198   0.06410   0.05828  -0.1233  0.1288  1.0000  -5.6073   0.0000   0.0000   0.0000   0.2917
  15.000   1.8011   0.07268   0.06705  -0.1231  0.1191  1.0000  -5.7408   0.0000   0.0000   0.0000   0.2911
  15.500   1.7843   0.08139   0.07591  -0.1234  0.1107  1.0000  -5.8769   0.0000   0.0000   0.0000   0.2907
  16.000   1.7689   0.09055   0.08539  -0.1252  0.1030  1.0000  -6.0143   0.0000   0.0000   0.0000   0.2910
  16.500   1.7510   0.09979   0.09464  -0.1272  0.0945  1.0000  -6.1365   0.0000   0.0000   0.0000   0.2917
  17.000   1.7365   0.10920   0.10442  -0.1304  0.0883  1.0000  -6.2614   0.0000   0.0000   0.0000   0.2929
  17.500   1.7219   0.11858   0.11404  -0.1341  0.0819  1.0000  -6.3809   0.0000   0.0000   0.0000   0.2943
  18.000   1.7121   0.12656   0.12205  -0.1371  0.0749  1.0000  -6.5251   0.0000   0.0000   0.0000   0.2952
  18.500   1.6963   0.13637   0.13227  -0.1424  0.0695  1.0000  -6.6034   0.0000   0.0000   0.0000   0.2978
  19.000   1.6797   0.14659   0.14264  -0.1482  0.0628  1.0000  -6.6706   0.0000   0.0000   0.0000   0.3008
  19.500   1.6602   0.15804   0.15433  -0.1548  0.0554  1.0000  -6.6835   0.0000   0.0000   0.0000   0.3045
  20.000   1.6335   0.17187   0.16822  -0.1630  0.0464  1.0000  -6.6187   0.0000   0.0000   0.0000   0.3098


