xflr5 v6.61

 Calculated polar for: franky

 1 1 Reynolds number fixed          Mach number fixed         

 xtrf =   1.000 (top)        1.000 (bottom)
 Mach =   0.000     Re =     0.130 e 6     Ncrit =   9.000

  alpha     CL        CD       CDp       Cm    Top Xtr Bot Xtr   Cpmin    Chinge    XCp    
 ------- -------- --------- --------- -------- ------- ------- -------- --------- ---------
   0.000   0.5576   0.01230   0.00661  -0.1297  0.8389  1.0000  -0.7783   0.0000   0.0000   0.0000   0.4815
   0.500   0.6316   0.01188   0.00579  -0.1320  0.8037  1.0000  -0.8434   0.0000   0.0000   0.0000   0.4573
   1.000   0.6933   0.01191   0.00545  -0.1321  0.7568  1.0000  -0.9053   0.0000   0.0000   0.0000   0.4384
   1.500   0.7537   0.01222   0.00532  -0.1322  0.7123  1.0000  -0.9726   0.0000   0.0000   0.0000   0.4227
   2.000   0.8092   0.01277   0.00550  -0.1316  0.6701  1.0000  -1.0436   0.0000   0.0000   0.0000   0.4095
   2.500   0.8630   0.01342   0.00588  -0.1310  0.6335  1.0000  -1.1185   0.0000   0.0000   0.0000   0.3981
   3.000   0.9163   0.01413   0.00642  -0.1303  0.6005  1.0000  -1.2013   0.0000   0.0000   0.0000   0.3879
   3.500   0.9691   0.01486   0.00693  -0.1295  0.5707  1.0000  -1.2941   0.0000   0.0000   0.0000   0.3789
   4.000   1.0202   0.01553   0.00756  -0.1285  0.5436  1.0000  -1.3953   0.0000   0.0000   0.0000   0.3707
   4.500   1.0719   0.01634   0.00829  -0.1277  0.5182  1.0000  -1.5111   0.0000   0.0000   0.0000   0.3633
   5.000   1.1240   0.01724   0.00904  -0.1270  0.4939  1.0000  -1.6430   0.0000   0.0000   0.0000   0.3565
   5.500   1.1732   0.01786   0.00972  -0.1257  0.4696  1.0000  -1.7826   0.0000   0.0000   0.0000   0.3500
   6.000   1.2223   0.01872   0.01084  -0.1244  0.4444  1.0000  -1.9331   0.0000   0.0000   0.0000   0.3440
   6.500   1.2709   0.01958   0.01169  -0.1230  0.4191  1.0000  -2.1106   0.0000   0.0000   0.0000   0.3384
   7.000   1.3185   0.02044   0.01246  -0.1215  0.3911  1.0000  -2.3927   0.0000   0.0000   0.0000   0.3330
   7.500   1.3616   0.02103   0.01321  -0.1191  0.3628  1.0000  -2.8101   0.0000   0.0000   0.0000   0.3277
   8.000   1.4034   0.02182   0.01416  -0.1167  0.3326  1.0000  -3.2145   0.0000   0.0000   0.0000   0.3226
   8.500   1.4423   0.02284   0.01522  -0.1139  0.3000  1.0000  -3.6498   0.0000   0.0000   0.0000   0.3176
   9.000   1.4739   0.02386   0.01627  -0.1100  0.2607  1.0000  -4.0714   0.0000   0.0000   0.0000   0.3125
   9.500   1.4969   0.02520   0.01746  -0.1053  0.2161  1.0000  -4.4682   0.0000   0.0000   0.0000   0.3074
  10.000   1.5193   0.02703   0.01932  -0.1007  0.1818  1.0000  -4.8592   0.0000   0.0000   0.0000   0.3025
  10.500   1.5364   0.02924   0.02172  -0.0954  0.1569  1.0000  -5.2442   0.0000   0.0000   0.0000   0.2976
  11.000   1.5488   0.03167   0.02425  -0.0902  0.1329  1.0000  -5.5846   0.0000   0.0000   0.0000   0.2929
  11.500   1.5558   0.03460   0.02725  -0.0854  0.1057  1.0000  -5.8738   0.0000   0.0000   0.0000   0.2887
  12.000   1.5418   0.03992   0.03240  -0.0801  0.0573  1.0000  -5.9345   0.0000   0.0000   0.0000   0.2848
  12.500   1.5029   0.04873   0.04116  -0.0757  0.0340  1.0000  -5.7979   0.0000   0.0000   0.0000   0.2823
  13.000   1.4768   0.05762   0.05032  -0.0747  0.0289  1.0000  -5.7815   0.0000   0.0000   0.0000   0.2815
  13.500   1.4443   0.06836   0.06139  -0.0758  0.0266  1.0000  -5.7186   0.0000   0.0000   0.0000   0.2824
  14.000   1.4264   0.07764   0.07099  -0.0771  0.0255  1.0000  -5.7294   0.0000   0.0000   0.0000   0.2830
  14.500   1.4137   0.08637   0.08005  -0.0784  0.0245  1.0000  -5.7621   0.0000   0.0000   0.0000   0.2834
  15.000   1.4068   0.09450   0.08849  -0.0793  0.0236  1.0000  -5.8152   0.0000   0.0000   0.0000   0.2834
  15.500   1.4007   0.10283   0.09717  -0.0808  0.0232  1.0000  -5.8577   0.0000   0.0000   0.0000   0.2836
  16.000   1.3897   0.11244   0.10719  -0.0837  0.0230  1.0000  -5.8518   0.0000   0.0000   0.0000   0.2852
  16.500   1.3691   0.12445   0.11964  -0.0894  0.0231  1.0000  -5.7580   0.0000   0.0000   0.0000   0.2893
  17.000   1.3390   0.13900   0.13465  -0.0983  0.0234  1.0000  -5.5617   0.0000   0.0000   0.0000   0.2966
  17.500   1.2986   0.15774   0.15382  -0.1108  0.0239  1.0000  -5.2203   0.0000   0.0000   0.0000   0.3079
  18.000   1.2352   0.18742   0.18386  -0.1297  0.0249  1.0000  -4.4964   0.0000   0.0000   0.0000   0.3277
  18.500   1.1787   0.22220   0.21869  -0.1464  0.0267  1.0000  -3.4961   0.0000   0.0000   0.0000   0.3477
  19.000   1.1296   0.27102   0.26729  -0.1641  0.0577  1.0000  -1.8986   0.0000   0.0000   0.0000   0.3705
  19.500   1.1331   0.28368   0.27996  -0.1685  0.0580  1.0000  -1.8162   0.0000   0.0000   0.0000   0.3732
  20.000   1.1381   0.29522   0.29153  -0.1722  0.0562  1.0000  -1.7789   0.0000   0.0000   0.0000   0.3749


