xflr5 v6.61

 Calculated polar for: franky

 1 1 Reynolds number fixed          Mach number fixed         

 xtrf =   1.000 (top)        1.000 (bottom)
 Mach =   0.000     Re =     0.160 e 6     Ncrit =   9.000

  alpha     CL        CD       CDp       Cm    Top Xtr Bot Xtr   Cpmin    Chinge    XCp    
 ------- -------- --------- --------- -------- ------- ------- -------- --------- ---------
   0.000   0.5777   0.01041   0.00513  -0.1318  0.8233  1.0000  -0.7944   0.0000   0.0000   0.0000   0.4770
   0.500   0.6432   0.01031   0.00460  -0.1328  0.7774  1.0000  -0.8542   0.0000   0.0000   0.0000   0.4547
   1.000   0.7023   0.01056   0.00443  -0.1327  0.7283  1.0000  -0.9148   0.0000   0.0000   0.0000   0.4368
   1.500   0.7581   0.01102   0.00445  -0.1322  0.6811  1.0000  -0.9791   0.0000   0.0000   0.0000   0.4216
   2.000   0.8125   0.01163   0.00466  -0.1316  0.6404  1.0000  -1.0497   0.0000   0.0000   0.0000   0.4087
   2.500   0.8657   0.01227   0.00501  -0.1309  0.6045  1.0000  -1.1249   0.0000   0.0000   0.0000   0.3974
   3.000   0.9180   0.01286   0.00549  -0.1300  0.5731  1.0000  -1.2073   0.0000   0.0000   0.0000   0.3874
   3.500   0.9701   0.01346   0.00598  -0.1293  0.5449  1.0000  -1.2997   0.0000   0.0000   0.0000   0.3784
   4.000   1.0225   0.01415   0.00655  -0.1286  0.5193  1.0000  -1.4030   0.0000   0.0000   0.0000   0.3704
   4.500   1.0750   0.01495   0.00716  -0.1279  0.4946  1.0000  -1.5214   0.0000   0.0000   0.0000   0.3630
   5.000   1.1254   0.01548   0.00774  -0.1269  0.4719  1.0000  -1.6525   0.0000   0.0000   0.0000   0.3562
   5.500   1.1761   0.01623   0.00848  -0.1259  0.4490  1.0000  -1.7946   0.0000   0.0000   0.0000   0.3499
   6.000   1.2262   0.01708   0.00940  -0.1249  0.4242  1.0000  -1.9490   0.0000   0.0000   0.0000   0.3440
   6.500   1.2734   0.01758   0.01003  -0.1232  0.3999  1.0000  -2.1278   0.0000   0.0000   0.0000   0.3383
   7.000   1.3200   0.01828   0.01082  -0.1216  0.3738  1.0000  -2.4231   0.0000   0.0000   0.0000   0.3330
   7.500   1.3649   0.01904   0.01168  -0.1197  0.3462  1.0000  -2.8360   0.0000   0.0000   0.0000   0.3278
   8.000   1.4074   0.01986   0.01254  -0.1175  0.3166  1.0000  -3.2634   0.0000   0.0000   0.0000   0.3228
   8.500   1.4444   0.02065   0.01333  -0.1144  0.2778  1.0000  -3.6986   0.0000   0.0000   0.0000   0.3178
   9.000   1.4750   0.02182   0.01433  -0.1106  0.2289  1.0000  -4.1223   0.0000   0.0000   0.0000   0.3128
   9.500   1.5027   0.02351   0.01587  -0.1067  0.1908  1.0000  -4.5370   0.0000   0.0000   0.0000   0.3080
  10.000   1.5272   0.02531   0.01768  -0.1023  0.1610  1.0000  -4.9387   0.0000   0.0000   0.0000   0.3032
  10.500   1.5471   0.02736   0.01991  -0.0974  0.1373  1.0000  -5.3412   0.0000   0.0000   0.0000   0.2984
  11.000   1.5621   0.02969   0.02224  -0.0926  0.1069  1.0000  -5.6827   0.0000   0.0000   0.0000   0.2939
  11.500   1.5583   0.03378   0.02607  -0.0866  0.0561  1.0000  -5.8175   0.0000   0.0000   0.0000   0.2893
  12.000   1.5238   0.04121   0.03329  -0.0797  0.0264  1.0000  -5.7181   0.0000   0.0000   0.0000   0.2852
  12.500   1.5099   0.04765   0.04015  -0.0766  0.0229  1.0000  -5.7775   0.0000   0.0000   0.0000   0.2826
  13.000   1.4926   0.05545   0.04832  -0.0755  0.0213  1.0000  -5.8388   0.0000   0.0000   0.0000   0.2815
  13.500   1.4729   0.06447   0.05770  -0.0761  0.0203  1.0000  -5.8832   0.0000   0.0000   0.0000   0.2816
  14.000   1.4526   0.07416   0.06771  -0.0778  0.0197  1.0000  -5.9128   0.0000   0.0000   0.0000   0.2825
  14.500   1.4340   0.08379   0.07763  -0.0798  0.0192  1.0000  -5.9402   0.0000   0.0000   0.0000   0.2835
  15.000   1.4216   0.09277   0.08687  -0.0815  0.0188  1.0000  -5.9886   0.0000   0.0000   0.0000   0.2842
  15.500   1.4144   0.10105   0.09543  -0.0830  0.0186  1.0000  -6.0527   0.0000   0.0000   0.0000   0.2845
  16.000   1.4078   0.10956   0.10426  -0.0850  0.0185  1.0000  -6.1041   0.0000   0.0000   0.0000   0.2852
  16.500   1.3969   0.11928   0.11435  -0.0887  0.0186  1.0000  -6.1080   0.0000   0.0000   0.0000   0.2873
  17.000   1.3790   0.13093   0.12642  -0.0947  0.0188  1.0000  -6.0337   0.0000   0.0000   0.0000   0.2915
  17.500   1.3511   0.14524   0.14121  -0.1038  0.0192  1.0000  -5.8329   0.0000   0.0000   0.0000   0.2988
  18.000   1.3058   0.16629   0.16277  -0.1178  0.0198  1.0000  -5.3927   0.0000   0.0000   0.0000   0.3117
  18.500   1.1694   0.23067   0.22747  -0.1514  0.0239  1.0000  -3.1657   0.0000   0.0000   0.0000   0.3536
  19.000   1.1617   0.24803   0.24480  -0.1575  0.0260  1.0000  -2.8578   0.0000   0.0000   0.0000   0.3591
  20.000   1.1563   0.29383   0.29062  -0.1665  0.0504  1.0000  -2.0398   0.0000   0.0000   0.0000   0.3671


