xflr5 v6.61

 Calculated polar for: franky

 1 1 Reynolds number fixed          Mach number fixed         

 xtrf =   1.000 (top)        1.000 (bottom)
 Mach =   0.000     Re =     0.200 e 6     Ncrit =   9.000

  alpha     CL        CD       CDp       Cm    Top Xtr Bot Xtr   Cpmin    Chinge    XCp    
 ------- -------- --------- --------- -------- ------- ------- -------- --------- ---------
   0.000   0.5921   0.00896   0.00402  -0.1334  0.7990  1.0000  -0.8060   0.0000   0.0000   0.0000   0.4740
   0.500   0.6516   0.00913   0.00373  -0.1335  0.7465  1.0000  -0.8622   0.0000   0.0000   0.0000   0.4531
   1.000   0.7074   0.00953   0.00369  -0.1330  0.6959  1.0000  -0.9207   0.0000   0.0000   0.0000   0.4358
   1.500   0.7610   0.01004   0.00379  -0.1323  0.6490  1.0000  -0.9837   0.0000   0.0000   0.0000   0.4210
   2.000   0.8142   0.01060   0.00402  -0.1315  0.6105  1.0000  -1.0538   0.0000   0.0000   0.0000   0.4083
   2.500   0.8669   0.01115   0.00433  -0.1308  0.5762  1.0000  -1.1290   0.0000   0.0000   0.0000   0.3971
   3.000   0.9197   0.01170   0.00478  -0.1302  0.5466  1.0000  -1.2124   0.0000   0.0000   0.0000   0.3872
   3.500   0.9724   0.01229   0.00521  -0.1295  0.5202  1.0000  -1.3057   0.0000   0.0000   0.0000   0.3783
   4.000   1.0248   0.01300   0.00570  -0.1288  0.4946  1.0000  -1.4100   0.0000   0.0000   0.0000   0.3703
   4.500   1.0765   0.01346   0.00617  -0.1280  0.4727  1.0000  -1.5283   0.0000   0.0000   0.0000   0.3629
   5.000   1.1281   0.01411   0.00677  -0.1273  0.4507  1.0000  -1.6625   0.0000   0.0000   0.0000   0.3562
   5.500   1.1787   0.01483   0.00749  -0.1263  0.4271  1.0000  -1.8057   0.0000   0.0000   0.0000   0.3499
   6.000   1.2283   0.01530   0.00812  -0.1252  0.4053  1.0000  -1.9600   0.0000   0.0000   0.0000   0.3440
   6.500   1.2769   0.01598   0.00881  -0.1239  0.3816  1.0000  -2.1441   0.0000   0.0000   0.0000   0.3385
   7.000   1.3235   0.01672   0.00950  -0.1223  0.3556  1.0000  -2.4595   0.0000   0.0000   0.0000   0.3332
   7.500   1.3684   0.01740   0.01025  -0.1205  0.3282  1.0000  -2.8742   0.0000   0.0000   0.0000   0.3281
   8.000   1.4102   0.01812   0.01098  -0.1182  0.2939  1.0000  -3.3073   0.0000   0.0000   0.0000   0.3231
   8.500   1.4458   0.01911   0.01179  -0.1151  0.2423  1.0000  -3.7413   0.0000   0.0000   0.0000   0.3182
   9.000   1.4815   0.02045   0.01305  -0.1122  0.2014  1.0000  -4.1864   0.0000   0.0000   0.0000   0.3135
   9.500   1.5116   0.02213   0.01459  -0.1086  0.1664  1.0000  -4.6141   0.0000   0.0000   0.0000   0.3088
  10.000   1.5387   0.02380   0.01626  -0.1045  0.1379  1.0000  -5.0270   0.0000   0.0000   0.0000   0.3041
  10.500   1.5602   0.02577   0.01830  -0.0999  0.1092  1.0000  -5.4321   0.0000   0.0000   0.0000   0.2994
  11.000   1.5648   0.02899   0.02124  -0.0938  0.0605  1.0000  -5.6376   0.0000   0.0000   0.0000   0.2945
  11.500   1.5425   0.03469   0.02668  -0.0858  0.0217  1.0000  -5.6240   0.0000   0.0000   0.0000   0.2894
  12.000   1.5292   0.04038   0.03269  -0.0807  0.0177  1.0000  -5.6909   0.0000   0.0000   0.0000   0.2856
  12.500   1.5122   0.04717   0.03988  -0.0776  0.0168  1.0000  -5.7582   0.0000   0.0000   0.0000   0.2832
  13.000   1.4970   0.05482   0.04790  -0.0766  0.0164  1.0000  -5.8457   0.0000   0.0000   0.0000   0.2821
  13.500   1.4798   0.06355   0.05699  -0.0771  0.0162  1.0000  -5.9101   0.0000   0.0000   0.0000   0.2820
  14.000   1.4632   0.07264   0.06640  -0.0783  0.0160  1.0000  -5.9662   0.0000   0.0000   0.0000   0.2824
  14.500   1.4482   0.08160   0.07566  -0.0797  0.0159  1.0000  -6.0193   0.0000   0.0000   0.0000   0.2828
  15.000   1.4376   0.09025   0.08461  -0.0810  0.0159  1.0000  -6.0831   0.0000   0.0000   0.0000   0.2832
  15.500   1.4284   0.09901   0.09369  -0.0827  0.0159  1.0000  -6.1374   0.0000   0.0000   0.0000   0.2837
  16.000   1.4163   0.10863   0.10368  -0.0856  0.0160  1.0000  -6.1531   0.0000   0.0000   0.0000   0.2852
  16.500   1.3988   0.11969   0.11513  -0.0902  0.0161  1.0000  -6.1089   0.0000   0.0000   0.0000   0.2883
  17.000   1.3745   0.13265   0.12850  -0.0972  0.0163  1.0000  -5.9878   0.0000   0.0000   0.0000   0.2936
  17.500   1.3451   0.14718   0.14343  -0.1066  0.0165  1.0000  -5.7822   0.0000   0.0000   0.0000   0.3012
  18.000   1.3077   0.16582   0.16245  -0.1188  0.0168  1.0000  -5.4417   0.0000   0.0000   0.0000   0.3122
  18.500   1.2603   0.19084   0.18783  -0.1343  0.0171  1.0000  -4.8764   0.0000   0.0000   0.0000   0.3278
  19.000   1.2284   0.21569   0.21289  -0.1477  0.0179  1.0000  -4.3528   0.0000   0.0000   0.0000   0.3415
  20.000   1.1547   0.29037   0.28749  -0.1725  0.0402  1.0000  -1.9847   0.0000   0.0000   0.0000   0.3725


