xflr5 v6.61

 Calculated polar for: NACA 4412

 1 1 Reynolds number fixed          Mach number fixed         

 xtrf =   1.000 (top)        1.000 (bottom)
 Mach =   0.000     Re =     0.001 e 6     Ncrit =   9.000

  alpha     CL        CD       CDp       Cm    Top Xtr Bot Xtr   Cpmin    Chinge    XCp    
 ------- -------- --------- --------- -------- ------- ------- -------- --------- ---------
   0.000   0.0076   0.17374   0.05859  -0.0376  1.0000  1.0000  -0.6638   0.0000   0.0000   0.0000   5.2894
   0.500   0.0371   0.17365   0.05675  -0.0371  1.0000  1.0000  -0.5913   0.0000   0.0000   0.0000   1.2596
   1.000   0.0669   0.17381   0.05551  -0.0365  1.0000  1.0000  -0.5232   0.0000   0.0000   0.0000   0.7970
   1.500   0.0967   0.17426   0.05472  -0.0359  1.0000  1.0000  -0.4965   0.0000   0.0000   0.0000   0.6195
   2.000   0.1265   0.17494   0.05433  -0.0353  1.0000  1.0000  -0.5143   0.0000   0.0000   0.0000   0.5259
   2.500   0.1562   0.17586   0.05433  -0.0348  1.0000  1.0000  -0.5319   0.0000   0.0000   0.0000   0.4684
   3.000   0.1856   0.17699   0.05472  -0.0343  1.0000  1.0000  -0.5513   0.0000   0.0000   0.0000   0.4296
   3.500   0.2147   0.17834   0.05547  -0.0339  1.0000  1.0000  -0.5707   0.0000   0.0000   0.0000   0.4018
   4.000   0.2435   0.17992   0.05657  -0.0335  1.0000  1.0000  -0.5914   0.0000   0.0000   0.0000   0.3808
   4.500   0.2720   0.18175   0.05807  -0.0332  1.0000  1.0000  -0.6131   0.0000   0.0000   0.0000   0.3646
   5.000   0.3002   0.18382   0.05997  -0.0329  1.0000  1.0000  -0.6353   0.0000   0.0000   0.0000   0.3518
   5.500   0.3278   0.18612   0.06225  -0.0328  1.0000  1.0000  -0.6597   0.0000   0.0000   0.0000   0.3416
   6.000   0.3549   0.18862   0.06489  -0.0327  1.0000  1.0000  -0.6851   0.0000   0.0000   0.0000   0.3332
   6.500   0.3814   0.19133   0.06808  -0.0327  1.0000  1.0000  -0.7117   0.0000   0.0000   0.0000   0.3264
   7.000   0.4072   0.19425   0.07134  -0.0329  1.0000  1.0000  -0.7400   0.0000   0.0000   0.0000   0.3208
   7.500   0.4326   0.19737   0.07493  -0.0332  1.0000  1.0000  -0.7711   0.0000   0.0000   0.0000   0.3162
   8.000   0.4573   0.20070   0.07886  -0.0335  1.0000  1.0000  -0.8044   0.0000   0.0000   0.0000   0.3123
   8.500   0.4815   0.20425   0.08311  -0.0341  1.0000  1.0000  -0.8401   0.0000   0.0000   0.0000   0.3092
   9.000   0.5051   0.20800   0.08766  -0.0347  1.0000  1.0000  -0.8784   0.0000   0.0000   0.0000   0.3066
   9.500   0.5281   0.21195   0.09294  -0.0355  1.0000  1.0000  -0.9191   0.0000   0.0000   0.0000   0.3045
  10.000   0.5504   0.21610   0.09803  -0.0365  1.0000  1.0000  -0.9639   0.0000   0.0000   0.0000   0.3030
  10.500   0.5721   0.22046   0.10342  -0.0377  1.0000  1.0000  -1.0102   0.0000   0.0000   0.0000   0.3019
  11.000   0.5934   0.22504   0.10909  -0.0390  1.0000  1.0000  -1.0579   0.0000   0.0000   0.0000   0.3012
  11.500   0.6141   0.22982   0.11503  -0.0405  1.0000  1.0000  -1.1087   0.0000   0.0000   0.0000   0.3007
  12.000   0.6343   0.23482   0.12122  -0.0422  1.0000  1.0000  -1.1598   0.0000   0.0000   0.0000   0.3006
  12.500   0.6542   0.24004   0.12828  -0.0439  1.0000  1.0000  -1.2124   0.0000   0.0000   0.0000   0.3006
  13.000   0.6733   0.24541   0.13487  -0.0460  1.0000  1.0000  -1.2666   0.0000   0.0000   0.0000   0.3011
  13.500   0.6919   0.25099   0.14171  -0.0482  1.0000  1.0000  -1.3177   0.0000   0.0000   0.0000   0.3017
  14.000   0.7101   0.25676   0.14878  -0.0506  1.0000  1.0000  -1.3670   0.0000   0.0000   0.0000   0.3026
  14.500   0.7279   0.26273   0.15605  -0.0532  1.0000  1.0000  -1.4222   0.0000   0.0000   0.0000   0.3036
  15.000   0.7454   0.26890   0.16352  -0.0559  1.0000  1.0000  -1.4738   0.0000   0.0000   0.0000   0.3048
  15.500   0.7624   0.27525   0.17116  -0.0588  1.0000  1.0000  -1.5217   0.0000   0.0000   0.0000   0.3061
  16.000   0.7794   0.28182   0.17965  -0.0618  1.0000  1.0000  -1.5670   0.0000   0.0000   0.0000   0.3075
  16.500   0.7958   0.28850   0.18755  -0.0650  1.0000  1.0000  -1.6136   0.0000   0.0000   0.0000   0.3091
  17.000   0.8120   0.29535   0.19563  -0.0684  1.0000  1.0000  -1.6621   0.0000   0.0000   0.0000   0.3107
  17.500   0.8279   0.30236   0.20386  -0.0719  1.0000  1.0000  -1.7066   0.0000   0.0000   0.0000   0.3125
  18.000   0.8436   0.30954   0.21223  -0.0755  1.0000  1.0000  -1.7473   0.0000   0.0000   0.0000   0.3143
  18.500   0.8592   0.31687   0.22072  -0.0793  1.0000  1.0000  -1.7842   0.0000   0.0000   0.0000   0.3161
  19.000   0.8745   0.32435   0.22934  -0.0832  1.0000  1.0000  -1.8172   0.0000   0.0000   0.0000   0.3180
  19.500   0.8898   0.33197   0.23807  -0.0872  1.0000  1.0000  -1.8466   0.0000   0.0000   0.0000   0.3199
  20.000   0.9050   0.33975   0.24753  -0.0912  1.0000  1.0000  -1.8812   0.0000   0.0000   0.0000   0.3217


