xflr5 v6.61

 Calculated polar for: NACA 4412

 1 1 Reynolds number fixed          Mach number fixed         

 xtrf =   1.000 (top)        1.000 (bottom)
 Mach =   0.000     Re =     0.207 e 6     Ncrit =   9.000

  alpha     CL        CD       CDp       Cm    Top Xtr Bot Xtr   Cpmin    Chinge    XCp    
 ------- -------- --------- --------- -------- ------- ------- -------- --------- ---------
   0.000   0.4860   0.00988   0.00437  -0.1075  0.7594  1.0000  -0.7743   0.0000   0.0000   0.0000   0.4700
   0.100   0.4961   0.00990   0.00434  -0.1072  0.7539  1.0000  -0.7823   0.0000   0.0000   0.0000   0.4648
   0.200   0.5068   0.00992   0.00429  -0.1070  0.7489  1.0000  -0.7907   0.0000   0.0000   0.0000   0.4597
   0.300   0.5180   0.00995   0.00423  -0.1069  0.7442  1.0000  -0.7996   0.0000   0.0000   0.0000   0.4548
   0.400   0.5285   0.00999   0.00422  -0.1067  0.7391  1.0000  -0.8084   0.0000   0.0000   0.0000   0.4502
   0.500   0.5380   0.01003   0.00424  -0.1063  0.7331  1.0000  -0.8166   0.0000   0.0000   0.0000   0.4459
   0.600   0.5479   0.01006   0.00423  -0.1061  0.7273  1.0000  -0.8252   0.0000   0.0000   0.0000   0.4416
   0.700   0.5585   0.01010   0.00420  -0.1058  0.7220  1.0000  -0.8341   0.0000   0.0000   0.0000   0.4375
   0.800   0.5694   0.01014   0.00416  -0.1057  0.7172  1.0000  -0.8434   0.0000   0.0000   0.0000   0.4335
   0.900   0.5807   0.01021   0.00414  -0.1057  0.7126  1.0000  -0.8528   0.0000   0.0000   0.0000   0.4296
   1.000   0.5903   0.01025   0.00419  -0.1053  0.7072  1.0000  -0.8610   0.0000   0.0000   0.0000   0.4261
   1.100   0.6002   0.01030   0.00422  -0.1051  0.7018  1.0000  -0.8695   0.0000   0.0000   0.0000   0.4226
   1.200   0.6105   0.01035   0.00422  -0.1049  0.6965  1.0000  -0.8787   0.0000   0.0000   0.0000   0.4191
   1.300   0.6212   0.01040   0.00421  -0.1047  0.6916  1.0000  -0.8885   0.0000   0.0000   0.0000   0.4158
   1.400   0.6322   0.01046   0.00420  -0.1046  0.6870  1.0000  -0.8985   0.0000   0.0000   0.0000   0.4126
   1.500   0.6430   0.01055   0.00422  -0.1045  0.6823  1.0000  -0.9084   0.0000   0.0000   0.0000   0.4095
   1.600   0.6528   0.01060   0.00428  -0.1042  0.6771  1.0000  -0.9174   0.0000   0.0000   0.0000   0.4066
   1.700   0.6629   0.01065   0.00431  -0.1040  0.6719  1.0000  -0.9268   0.0000   0.0000   0.0000   0.4037
   1.800   0.6733   0.01071   0.00434  -0.1038  0.6670  1.0000  -0.9364   0.0000   0.0000   0.0000   0.4009
   1.900   0.6839   0.01077   0.00435  -0.1036  0.6625  1.0000  -0.9464   0.0000   0.0000   0.0000   0.3981
   2.000   0.6949   0.01085   0.00436  -0.1035  0.6583  1.0000  -0.9572   0.0000   0.0000   0.0000   0.3955
   2.100   0.7061   0.01096   0.00443  -0.1035  0.6540  1.0000  -0.9680   0.0000   0.0000   0.0000   0.3930
   2.200   0.7159   0.01102   0.00450  -0.1033  0.6496  1.0000  -0.9779   0.0000   0.0000   0.0000   0.3905
   2.300   0.7260   0.01108   0.00455  -0.1031  0.6450  1.0000  -0.9881   0.0000   0.0000   0.0000   0.3881
   2.400   0.7363   0.01114   0.00460  -0.1029  0.6404  1.0000  -0.9984   0.0000   0.0000   0.0000   0.3858
   2.500   0.7468   0.01121   0.00463  -0.1027  0.6360  1.0000  -1.0089   0.0000   0.0000   0.0000   0.3835
   2.600   0.7575   0.01128   0.00466  -0.1026  0.6318  1.0000  -1.0205   0.0000   0.0000   0.0000   0.3813
   2.700   0.7685   0.01139   0.00469  -0.1025  0.6279  1.0000  -1.0322   0.0000   0.0000   0.0000   0.3791
   2.800   0.7795   0.01151   0.00477  -0.1024  0.6240  1.0000  -1.0439   0.0000   0.0000   0.0000   0.3771
   2.900   0.7895   0.01157   0.00485  -0.1022  0.6202  1.0000  -1.0548   0.0000   0.0000   0.0000   0.3751
   3.000   0.7996   0.01163   0.00492  -0.1021  0.6161  1.0000  -1.0658   0.0000   0.0000   0.0000   0.3731
   3.100   0.8099   0.01170   0.00498  -0.1019  0.6119  1.0000  -1.0779   0.0000   0.0000   0.0000   0.3711
   3.200   0.8204   0.01177   0.00504  -0.1017  0.6079  1.0000  -1.0902   0.0000   0.0000   0.0000   0.3692
   3.300   0.8310   0.01186   0.00508  -0.1016  0.6041  1.0000  -1.1028   0.0000   0.0000   0.0000   0.3674
   3.400   0.8418   0.01196   0.00513  -0.1015  0.6004  1.0000  -1.1155   0.0000   0.0000   0.0000   0.3656
   3.500   0.8530   0.01209   0.00521  -0.1015  0.5967  1.0000  -1.1292   0.0000   0.0000   0.0000   0.3639
   3.600   0.8633   0.01219   0.00531  -0.1013  0.5933  1.0000  -1.1425   0.0000   0.0000   0.0000   0.3622
   3.700   0.8734   0.01226   0.00540  -0.1011  0.5897  1.0000  -1.1555   0.0000   0.0000   0.0000   0.3605
   3.800   0.8836   0.01233   0.00548  -0.1010  0.5859  1.0000  -1.1695   0.0000   0.0000   0.0000   0.3589
   3.900   0.8938   0.01240   0.00556  -0.1008  0.5820  1.0000  -1.1840   0.0000   0.0000   0.0000   0.3572
   4.000   0.9042   0.01248   0.00567  -0.1006  0.5783  1.0000  -1.1992   0.0000   0.0000   0.0000   0.3557
   4.100   0.9148   0.01257   0.00573  -0.1005  0.5747  1.0000  -1.2153   0.0000   0.0000   0.0000   0.3541
   4.200   0.9256   0.01268   0.00580  -0.1004  0.5712  1.0000  -1.2330   0.0000   0.0000   0.0000   0.3526
   4.300   0.9367   0.01283   0.00589  -0.1004  0.5676  1.0000  -1.2534   0.0000   0.0000   0.0000   0.3512
   4.400   0.9471   0.01294   0.00601  -0.1003  0.5643  1.0000  -1.2760   0.0000   0.0000   0.0000   0.3498
   4.500   0.9569   0.01301   0.00611  -0.1000  0.5609  1.0000  -1.3010   0.0000   0.0000   0.0000   0.3484
   4.600   0.9669   0.01308   0.00621  -0.0998  0.5572  1.0000  -1.3278   0.0000   0.0000   0.0000   0.3469
   4.700   0.9771   0.01316   0.00630  -0.0996  0.5534  1.0000  -1.3570   0.0000   0.0000   0.0000   0.3456
   4.800   0.9873   0.01324   0.00638  -0.0994  0.5498  1.0000  -1.3866   0.0000   0.0000   0.0000   0.3442
   4.900   0.9977   0.01333   0.00645  -0.0993  0.5462  1.0000  -1.4196   0.0000   0.0000   0.0000   0.3429
   5.000   1.0083   0.01343   0.00652  -0.0992  0.5427  1.0000  -1.4543   0.0000   0.0000   0.0000   0.3416
   5.100   1.0192   0.01359   0.00662  -0.0991  0.5389  1.0000  -1.4899   0.0000   0.0000   0.0000   0.3404
   5.200   1.0297   0.01373   0.00676  -0.0990  0.5353  1.0000  -1.5246   0.0000   0.0000   0.0000   0.3392
   5.300   1.0392   0.01379   0.00687  -0.0987  0.5319  1.0000  -1.5593   0.0000   0.0000   0.0000   0.3379
   5.400   1.0489   0.01386   0.00697  -0.0984  0.5280  1.0000  -1.5984   0.0000   0.0000   0.0000   0.3366
   5.500   1.0588   0.01393   0.00706  -0.0982  0.5240  1.0000  -1.6382   0.0000   0.0000   0.0000   0.3354
   5.600   1.0687   0.01401   0.00714  -0.0979  0.5200  1.0000  -1.6785   0.0000   0.0000   0.0000   0.3342
   5.700   1.0789   0.01410   0.00721  -0.0977  0.5160  1.0000  -1.7196   0.0000   0.0000   0.0000   0.3330
   5.800   1.0893   0.01422   0.00734  -0.0976  0.5120  1.0000  -1.7614   0.0000   0.0000   0.0000   0.3319
   5.900   1.1002   0.01441   0.00747  -0.0975  0.5074  1.0000  -1.8042   0.0000   0.0000   0.0000   0.3308
   6.000   1.1091   0.01445   0.00758  -0.0971  0.5036  1.0000  -1.8435   0.0000   0.0000   0.0000   0.3296
   6.100   1.1182   0.01450   0.00767  -0.0967  0.4990  1.0000  -1.8849   0.0000   0.0000   0.0000   0.3284
   6.200   1.1275   0.01456   0.00775  -0.0964  0.4941  1.0000  -1.9326   0.0000   0.0000   0.0000   0.3273
   6.300   1.1370   0.01463   0.00781  -0.0960  0.4892  1.0000  -1.9810   0.0000   0.0000   0.0000   0.3261
   6.400   1.1468   0.01473   0.00786  -0.0957  0.4843  1.0000  -2.0307   0.0000   0.0000   0.0000   0.3250
   6.500   1.1573   0.01492   0.00797  -0.0956  0.4790  1.0000  -2.0823   0.0000   0.0000   0.0000   0.3240
   6.600   1.1657   0.01495   0.00808  -0.0951  0.4746  1.0000  -2.1290   0.0000   0.0000   0.0000   0.3229
   6.700   1.1745   0.01500   0.00818  -0.0947  0.4694  1.0000  -2.1771   0.0000   0.0000   0.0000   0.3217
   6.800   1.1834   0.01506   0.00826  -0.0942  0.4642  1.0000  -2.2260   0.0000   0.0000   0.0000   0.3206
   6.900   1.1926   0.01514   0.00833  -0.0939  0.4589  1.0000  -2.2759   0.0000   0.0000   0.0000   0.3196
   7.000   1.2020   0.01528   0.00840  -0.0935  0.4538  1.0000  -2.3268   0.0000   0.0000   0.0000   0.3185
   7.100   1.2113   0.01541   0.00853  -0.0932  0.4488  1.0000  -2.3775   0.0000   0.0000   0.0000   0.3175
   7.200   1.2198   0.01546   0.00865  -0.0927  0.4437  1.0000  -2.4263   0.0000   0.0000   0.0000   0.3165
   7.300   1.2284   0.01553   0.00876  -0.0922  0.4381  1.0000  -2.4760   0.0000   0.0000   0.0000   0.3154
   7.400   1.2370   0.01562   0.00884  -0.0918  0.4323  1.0000  -2.5262   0.0000   0.0000   0.0000   0.3144
   7.500   1.2456   0.01574   0.00892  -0.0913  0.4267  1.0000  -2.5768   0.0000   0.0000   0.0000   0.3134
   7.600   1.2543   0.01590   0.00905  -0.0909  0.4213  1.0000  -2.6278   0.0000   0.0000   0.0000   0.3124
   7.700   1.2627   0.01595   0.00923  -0.0904  0.4155  1.0000  -2.6876   0.0000   0.0000   0.0000   0.3114
   7.800   1.2709   0.01603   0.00935  -0.0899  0.4089  1.0000  -2.7474   0.0000   0.0000   0.0000   0.3103
   7.900   1.2789   0.01614   0.00945  -0.0893  0.4024  1.0000  -2.8065   0.0000   0.0000   0.0000   0.3093
   8.000   1.2865   0.01631   0.00955  -0.0887  0.3960  1.0000  -2.8651   0.0000   0.0000   0.0000   0.3083
   8.100   1.2947   0.01640   0.00970  -0.0882  0.3896  1.0000  -2.9251   0.0000   0.0000   0.0000   0.3073
   8.200   1.3025   0.01650   0.00984  -0.0876  0.3819  1.0000  -2.9842   0.0000   0.0000   0.0000   0.3063
   8.300   1.3095   0.01664   0.00996  -0.0869  0.3741  1.0000  -3.0416   0.0000   0.0000   0.0000   0.3052
   8.400   1.3162   0.01682   0.01009  -0.0861  0.3665  1.0000  -3.0983   0.0000   0.0000   0.0000   0.3042
   8.500   1.3238   0.01694   0.01025  -0.0855  0.3577  1.0000  -3.1577   0.0000   0.0000   0.0000   0.3032
   8.600   1.3300   0.01712   0.01041  -0.0847  0.3484  1.0000  -3.2134   0.0000   0.0000   0.0000   0.3021
   8.700   1.3356   0.01734   0.01058  -0.0837  0.3396  1.0000  -3.2676   0.0000   0.0000   0.0000   0.3010
   8.800   1.3425   0.01750   0.01077  -0.0831  0.3294  1.0000  -3.3256   0.0000   0.0000   0.0000   0.3000
   8.900   1.3474   0.01775   0.01097  -0.0820  0.3193  1.0000  -3.3778   0.0000   0.0000   0.0000   0.2989
   9.000   1.3530   0.01799   0.01119  -0.0811  0.3091  1.0000  -3.4320   0.0000   0.0000   0.0000   0.2978
   9.100   1.3576   0.01826   0.01142  -0.0801  0.2973  1.0000  -3.4836   0.0000   0.0000   0.0000   0.2967
   9.200   1.3614   0.01857   0.01168  -0.0789  0.2859  1.0000  -3.5323   0.0000   0.0000   0.0000   0.2955
   9.300   1.3645   0.01888   0.01195  -0.0777  0.2728  1.0000  -3.5792   0.0000   0.0000   0.0000   0.2943
   9.400   1.3664   0.01924   0.01224  -0.0762  0.2606  1.0000  -3.6220   0.0000   0.0000   0.0000   0.2930
   9.500   1.3679   0.01964   0.01257  -0.0747  0.2467  1.0000  -3.6634   0.0000   0.0000   0.0000   0.2917
   9.600   1.3695   0.02006   0.01293  -0.0733  0.2329  1.0000  -3.7050   0.0000   0.0000   0.0000   0.2905
   9.700   1.3692   0.02059   0.01336  -0.0716  0.2192  1.0000  -3.7403   0.0000   0.0000   0.0000   0.2891
   9.800   1.3705   0.02108   0.01379  -0.0703  0.2039  1.0000  -3.7804   0.0000   0.0000   0.0000   0.2879
   9.900   1.3706   0.02165   0.01427  -0.0688  0.1897  1.0000  -3.8166   0.0000   0.0000   0.0000   0.2867
  10.100   1.3699   0.02290   0.01539  -0.0658  0.1626  1.0000  -3.8828   0.0000   0.0000   0.0000   0.2842
  10.200   1.3694   0.02357   0.01598  -0.0644  0.1508  1.0000  -3.9154   0.0000   0.0000   0.0000   0.2830
  10.300   1.3683   0.02428   0.01662  -0.0630  0.1399  1.0000  -3.9462   0.0000   0.0000   0.0000   0.2819
  10.400   1.3686   0.02494   0.01723  -0.0617  0.1301  1.0000  -3.9807   0.0000   0.0000   0.0000   0.2808
  10.500   1.3674   0.02571   0.01793  -0.0604  0.1219  1.0000  -4.0102   0.0000   0.0000   0.0000   0.2797
  10.600   1.3679   0.02638   0.01858  -0.0592  0.1146  1.0000  -4.0446   0.0000   0.0000   0.0000   0.2786
  10.700   1.3676   0.02712   0.01929  -0.0580  0.1082  1.0000  -4.0766   0.0000   0.0000   0.0000   0.2776
  10.800   1.3651   0.02803   0.02014  -0.0567  0.1029  1.0000  -4.1000   0.0000   0.0000   0.0000   0.2765
  10.900   1.3673   0.02863   0.02077  -0.0558  0.0979  1.0000  -4.1395   0.0000   0.0000   0.0000   0.2757
  11.000   1.3676   0.02937   0.02150  -0.0548  0.0935  1.0000  -4.1727   0.0000   0.0000   0.0000   0.2747
  11.100   1.3662   0.03026   0.02235  -0.0537  0.0899  1.0000  -4.1997   0.0000   0.0000   0.0000   0.2738
  11.200   1.3639   0.03124   0.02331  -0.0525  0.0866  1.0000  -4.2212   0.0000   0.0000   0.0000   0.2728
  11.300   1.3666   0.03186   0.02399  -0.0518  0.0835  1.0000  -4.2614   0.0000   0.0000   0.0000   0.2721
  11.400   1.3680   0.03259   0.02474  -0.0510  0.0806  1.0000  -4.2975   0.0000   0.0000   0.0000   0.2713
  11.500   1.3682   0.03342   0.02557  -0.0502  0.0780  1.0000  -4.3300   0.0000   0.0000   0.0000   0.2705
  11.600   1.3670   0.03438   0.02652  -0.0494  0.0758  1.0000  -4.3566   0.0000   0.0000   0.0000   0.2697
  11.700   1.3637   0.03552   0.02764  -0.0484  0.0736  1.0000  -4.3736   0.0000   0.0000   0.0000   0.2689
  11.800   1.3635   0.03643   0.02857  -0.0476  0.0717  1.0000  -4.4012   0.0000   0.0000   0.0000   0.2681
  11.900   1.3662   0.03711   0.02932  -0.0470  0.0698  1.0000  -4.4460   0.0000   0.0000   0.0000   0.2675
  12.000   1.3679   0.03789   0.03013  -0.0465  0.0679  1.0000  -4.4917   0.0000   0.0000   0.0000   0.2668
  12.100   1.3692   0.03870   0.03098  -0.0459  0.0661  1.0000  -4.5367   0.0000   0.0000   0.0000   0.2662
  12.200   1.3701   0.03957   0.03186  -0.0454  0.0644  1.0000  -4.5804   0.0000   0.0000   0.0000   0.2656
  12.300   1.3697   0.04056   0.03285  -0.0448  0.0629  1.0000  -4.6180   0.0000   0.0000   0.0000   0.2650
  12.400   1.3679   0.04169   0.03397  -0.0442  0.0614  1.0000  -4.6480   0.0000   0.0000   0.0000   0.2644
  12.500   1.3646   0.04296   0.03523  -0.0434  0.0598  1.0000  -4.6683   0.0000   0.0000   0.0000   0.2637
  12.600   1.3653   0.04389   0.03619  -0.0428  0.0586  1.0000  -4.7076   0.0000   0.0000   0.0000   0.2631
  12.700   1.3679   0.04465   0.03702  -0.0425  0.0575  1.0000  -4.7574   0.0000   0.0000   0.0000   0.2626
  12.800   1.3698   0.04548   0.03789  -0.0421  0.0563  1.0000  -4.8041   0.0000   0.0000   0.0000   0.2621
  12.900   1.3713   0.04634   0.03879  -0.0417  0.0551  1.0000  -4.8491   0.0000   0.0000   0.0000   0.2616
  13.000   1.3725   0.04724   0.03973  -0.0413  0.0540  1.0000  -4.8924   0.0000   0.0000   0.0000   0.2611
  13.100   1.3732   0.04819   0.04072  -0.0409  0.0530  1.0000  -4.9337   0.0000   0.0000   0.0000   0.2606
  13.200   1.3739   0.04917   0.04172  -0.0405  0.0521  1.0000  -4.9749   0.0000   0.0000   0.0000   0.2601
  13.300   1.3744   0.05016   0.04273  -0.0402  0.0512  1.0000  -5.0157   0.0000   0.0000   0.0000   0.2596
  13.400   1.3746   0.05119   0.04377  -0.0398  0.0503  1.0000  -5.0546   0.0000   0.0000   0.0000   0.2592
  13.500   1.3741   0.05228   0.04489  -0.0394  0.0494  1.0000  -5.0875   0.0000   0.0000   0.0000   0.2587
  13.600   1.3734   0.05338   0.04598  -0.0387  0.0485  1.0000  -5.1184   0.0000   0.0000   0.0000   0.2580
  13.700   1.3731   0.05437   0.04696  -0.0376  0.0472  1.0000  -5.1448   0.0000   0.0000   0.0000   0.2571
  13.800   1.3752   0.05526   0.04789  -0.0374  0.0468  1.0000  -5.1904   0.0000   0.0000   0.0000   0.2567
  13.900   1.3773   0.05615   0.04884  -0.0371  0.0463  1.0000  -5.2359   0.0000   0.0000   0.0000   0.2562
  14.000   1.3792   0.05705   0.04980  -0.0369  0.0457  1.0000  -5.2804   0.0000   0.0000   0.0000   0.2558
  14.100   1.3811   0.05796   0.05077  -0.0366  0.0451  1.0000  -5.3240   0.0000   0.0000   0.0000   0.2554
  14.200   1.3828   0.05889   0.05175  -0.0363  0.0445  1.0000  -5.3670   0.0000   0.0000   0.0000   0.2549
  14.300   1.3843   0.05984   0.05276  -0.0360  0.0439  1.0000  -5.4087   0.0000   0.0000   0.0000   0.2545
  14.400   1.3856   0.06081   0.05377  -0.0357  0.0432  1.0000  -5.4500   0.0000   0.0000   0.0000   0.2541
  14.500   1.3870   0.06178   0.05479  -0.0354  0.0426  1.0000  -5.4918   0.0000   0.0000   0.0000   0.2537
  14.600   1.3884   0.06276   0.05580  -0.0352  0.0421  1.0000  -5.5339   0.0000   0.0000   0.0000   0.2532
  14.700   1.3898   0.06374   0.05682  -0.0350  0.0415  1.0000  -5.5764   0.0000   0.0000   0.0000   0.2529
  14.800   1.3912   0.06472   0.05783  -0.0347  0.0410  1.0000  -5.6193   0.0000   0.0000   0.0000   0.2525
  14.900   1.3924   0.06573   0.05887  -0.0345  0.0404  1.0000  -5.6617   0.0000   0.0000   0.0000   0.2521
  15.000   1.3935   0.06676   0.05993  -0.0344  0.0399  1.0000  -5.7037   0.0000   0.0000   0.0000   0.2517
  15.100   1.3946   0.06779   0.06098  -0.0342  0.0395  1.0000  -5.7454   0.0000   0.0000   0.0000   0.2514
  15.200   1.3958   0.06881   0.06202  -0.0339  0.0390  1.0000  -5.7874   0.0000   0.0000   0.0000   0.2510
  15.300   1.3971   0.06980   0.06304  -0.0336  0.0385  1.0000  -5.8292   0.0000   0.0000   0.0000   0.2506
  15.400   1.3988   0.07077   0.06402  -0.0332  0.0379  1.0000  -5.8698   0.0000   0.0000   0.0000   0.2500
  15.500   1.4009   0.07169   0.06496  -0.0324  0.0372  1.0000  -5.9068   0.0000   0.0000   0.0000   0.2493
  15.600   1.4033   0.07278   0.06611  -0.0311  0.0364  1.0000  -5.9267   0.0000   0.0000   0.0000   0.2481
  15.700   1.4025   0.07408   0.06749  -0.0312  0.0362  1.0000  -5.9553   0.0000   0.0000   0.0000   0.2480
  15.800   1.4016   0.07541   0.06889  -0.0313  0.0360  1.0000  -5.9835   0.0000   0.0000   0.0000   0.2479
  15.900   1.4008   0.07674   0.07030  -0.0314  0.0357  1.0000  -6.0113   0.0000   0.0000   0.0000   0.2478
  16.000   1.3999   0.07809   0.07173  -0.0316  0.0354  1.0000  -6.0382   0.0000   0.0000   0.0000   0.2477
  16.100   1.3986   0.07951   0.07323  -0.0317  0.0352  1.0000  -6.0624   0.0000   0.0000   0.0000   0.2476
  16.200   1.3971   0.08095   0.07474  -0.0319  0.0348  1.0000  -6.0856   0.0000   0.0000   0.0000   0.2475
  16.300   1.3957   0.08240   0.07627  -0.0321  0.0345  1.0000  -6.1088   0.0000   0.0000   0.0000   0.2475
  16.400   1.3943   0.08387   0.07780  -0.0323  0.0342  1.0000  -6.1317   0.0000   0.0000   0.0000   0.2474
  16.500   1.3925   0.08539   0.07939  -0.0326  0.0338  1.0000  -6.1528   0.0000   0.0000   0.0000   0.2474
  16.600   1.3906   0.08696   0.08103  -0.0329  0.0335  1.0000  -6.1728   0.0000   0.0000   0.0000   0.2475
  16.700   1.3888   0.08852   0.08266  -0.0332  0.0331  1.0000  -6.1933   0.0000   0.0000   0.0000   0.2475
  16.800   1.3871   0.09008   0.08428  -0.0335  0.0328  1.0000  -6.2142   0.0000   0.0000   0.0000   0.2475
  16.900   1.3853   0.09166   0.08595  -0.0339  0.0325  1.0000  -6.2355   0.0000   0.0000   0.0000   0.2476
  17.000   1.3829   0.09336   0.08772  -0.0343  0.0322  1.0000  -6.2515   0.0000   0.0000   0.0000   0.2477
  17.100   1.3803   0.09510   0.08952  -0.0348  0.0319  1.0000  -6.2658   0.0000   0.0000   0.0000   0.2479
  17.200   1.3777   0.09684   0.09133  -0.0353  0.0316  1.0000  -6.2795   0.0000   0.0000   0.0000   0.2481
  17.300   1.3752   0.09860   0.09315  -0.0357  0.0314  1.0000  -6.2921   0.0000   0.0000   0.0000   0.2483
  17.400   1.3720   0.10047   0.09509  -0.0363  0.0312  1.0000  -6.3000   0.0000   0.0000   0.0000   0.2485
  17.500   1.3686   0.10239   0.09708  -0.0369  0.0310  1.0000  -6.3049   0.0000   0.0000   0.0000   0.2488
  17.600   1.3652   0.10433   0.09909  -0.0375  0.0309  1.0000  -6.3091   0.0000   0.0000   0.0000   0.2491
  17.700   1.3617   0.10630   0.10113  -0.0382  0.0307  1.0000  -6.3122   0.0000   0.0000   0.0000   0.2494
  17.800   1.3577   0.10838   0.10328  -0.0390  0.0306  1.0000  -6.3110   0.0000   0.0000   0.0000   0.2499
  17.900   1.3534   0.11054   0.10551  -0.0398  0.0304  1.0000  -6.3069   0.0000   0.0000   0.0000   0.2503
  18.000   1.3491   0.11272   0.10776  -0.0407  0.0303  1.0000  -6.3021   0.0000   0.0000   0.0000   0.2509
  18.100   1.3446   0.11492   0.11004  -0.0416  0.0302  1.0000  -6.2954   0.0000   0.0000   0.0000   0.2514
  18.200   1.3393   0.11731   0.11250  -0.0427  0.0301  1.0000  -6.2821   0.0000   0.0000   0.0000   0.2521
  18.300   1.3338   0.11975   0.11502  -0.0438  0.0300  1.0000  -6.2657   0.0000   0.0000   0.0000   0.2529
  18.400   1.3282   0.12222   0.11756  -0.0449  0.0299  1.0000  -6.2475   0.0000   0.0000   0.0000   0.2537
  18.500   1.3220   0.12486   0.12028  -0.0462  0.0299  1.0000  -6.2233   0.0000   0.0000   0.0000   0.2546
  18.600   1.3149   0.12771   0.12321  -0.0477  0.0298  1.0000  -6.1908   0.0000   0.0000   0.0000   0.2557
  18.700   1.3078   0.13062   0.12620  -0.0492  0.0298  1.0000  -6.1559   0.0000   0.0000   0.0000   0.2568
  18.800   1.2996   0.13382   0.12949  -0.0510  0.0298  1.0000  -6.1097   0.0000   0.0000   0.0000   0.2582
  18.900   1.2903   0.13732   0.13308  -0.0530  0.0298  1.0000  -6.0516   0.0000   0.0000   0.0000   0.2598
  19.000   1.2801   0.14111   0.13697  -0.0552  0.0298  1.0000  -5.9819   0.0000   0.0000   0.0000   0.2617
  19.100   1.2671   0.14563   0.14161  -0.0579  0.0299  1.0000  -5.8838   0.0000   0.0000   0.0000   0.2642
  19.200   1.2509   0.15108   0.14719  -0.0613  0.0301  1.0000  -5.7488   0.0000   0.0000   0.0000   0.2674
  19.300   1.2292   0.15813   0.15435  -0.0658  0.0305  1.0000  -5.5499   0.0000   0.0000   0.0000   0.2718
  19.500   1.0619   0.21807   0.21456  -0.0995  0.0360  1.0000  -3.2407   0.0000   0.0000   0.0000   0.3150
  19.600   1.0622   0.22011   0.21661  -0.1003  0.0363  1.0000  -3.2200   0.0000   0.0000   0.0000   0.3155
  19.700   1.0649   0.22172   0.21823  -0.1009  0.0366  1.0000  -3.2184   0.0000   0.0000   0.0000   0.3157
  19.800   1.0327   0.24589   0.24235  -0.1138  0.0524  1.0000  -2.2013   0.0000   0.0000   0.0000   0.3327
  19.900   1.0356   0.24719   0.24364  -0.1146  0.0517  1.0000  -2.2059   0.0000   0.0000   0.0000   0.3329
  20.000   1.0388   0.24835   0.24481  -0.1151  0.0510  1.0000  -2.2167   0.0000   0.0000   0.0000   0.3329
  20.100   1.0424   0.24938   0.24585  -0.1156  0.0503  1.0000  -2.2344   0.0000   0.0000   0.0000   0.3326
  20.200   1.0464   0.25029   0.24676  -0.1158  0.0498  1.0000  -2.2598   0.0000   0.0000   0.0000   0.3322
  20.300   1.0510   0.25106   0.24755  -0.1158  0.0493  1.0000  -2.2942   0.0000   0.0000   0.0000   0.3314
  20.400   1.0559   0.25174   0.24824  -0.1156  0.0488  1.0000  -2.3357   0.0000   0.0000   0.0000   0.3305
  20.500   1.0610   0.25240   0.24891  -0.1153  0.0484  1.0000  -2.3814   0.0000   0.0000   0.0000   0.3294
  20.600   1.0659   0.25316   0.24968  -0.1148  0.0480  1.0000  -2.4291   0.0000   0.0000   0.0000   0.3282
  20.700   1.0670   0.25675   0.25326  -0.1141  0.0472  1.0000  -2.4360   0.0000   0.0000   0.0000   0.3271
  20.800   1.0685   0.25895   0.25546  -0.1154  0.0471  1.0000  -2.4008   0.0000   0.0000   0.0000   0.3281
  20.900   1.0701   0.26110   0.25760  -0.1168  0.0471  1.0000  -2.3763   0.0000   0.0000   0.0000   0.3290
  21.000   1.0716   0.26317   0.25968  -0.1182  0.0470  1.0000  -2.3555   0.0000   0.0000   0.0000   0.3300
  21.100   1.0732   0.26517   0.26168  -0.1197  0.0469  1.0000  -2.3335   0.0000   0.0000   0.0000   0.3311
  21.200   1.0736   0.26728   0.26378  -0.1217  0.0467  1.0000  -2.2898   0.0000   0.0000   0.0000   0.3328
  21.300   1.0709   0.26965   0.26613  -0.1257  0.0461  1.0000  -2.1763   0.0000   0.0000   0.0000   0.3367
  21.400   1.0688   0.27223   0.26870  -0.1294  0.0442  1.0000  -2.0719   0.0000   0.0000   0.0000   0.3404
  21.500   1.0708   0.27402   0.27048  -0.1307  0.0433  1.0000  -2.0610   0.0000   0.0000   0.0000   0.3412
  21.600   1.0731   0.27564   0.27210  -0.1318  0.0425  1.0000  -2.0605   0.0000   0.0000   0.0000   0.3417
  21.700   1.0756   0.27719   0.27365  -0.1328  0.0418  1.0000  -2.0650   0.0000   0.0000   0.0000   0.3421
  21.800   1.0782   0.27867   0.27513  -0.1337  0.0413  1.0000  -2.0732   0.0000   0.0000   0.0000   0.3425
  21.900   1.0810   0.28009   0.27656  -0.1346  0.0407  1.0000  -2.0843   0.0000   0.0000   0.0000   0.3427
  22.000   1.0838   0.28147   0.27794  -0.1354  0.0402  1.0000  -2.0981   0.0000   0.0000   0.0000   0.3429
  22.100   1.0866   0.28279   0.27928  -0.1361  0.0398  1.0000  -2.1146   0.0000   0.0000   0.0000   0.3430
  22.200   1.0896   0.28409   0.28060  -0.1368  0.0394  1.0000  -2.1353   0.0000   0.0000   0.0000   0.3431
  22.300   1.0926   0.28534   0.28185  -0.1375  0.0390  1.0000  -2.1577   0.0000   0.0000   0.0000   0.3431
  22.400   1.0958   0.28655   0.28308  -0.1381  0.0387  1.0000  -2.1826   0.0000   0.0000   0.0000   0.3430
  22.500   1.0990   0.28775   0.28428  -0.1386  0.0384  1.0000  -2.2104   0.0000   0.0000   0.0000   0.3429
  22.600   1.1024   0.28893   0.28546  -0.1390  0.0381  1.0000  -2.2414   0.0000   0.0000   0.0000   0.3426
  22.700   1.1059   0.29010   0.28665  -0.1394  0.0379  1.0000  -2.2761   0.0000   0.0000   0.0000   0.3423
  22.800   1.1095   0.29131   0.28787  -0.1396  0.0376  1.0000  -2.3151   0.0000   0.0000   0.0000   0.3418
  22.900   1.1135   0.29258   0.28914  -0.1397  0.0374  1.0000  -2.3590   0.0000   0.0000   0.0000   0.3412
  23.000   1.1178   0.29398   0.29056  -0.1396  0.0372  1.0000  -2.4092   0.0000   0.0000   0.0000   0.3403
  23.100   1.1219   0.29561   0.29220  -0.1394  0.0370  1.0000  -2.4600   0.0000   0.0000   0.0000   0.3394
  23.200   1.1258   0.29829   0.29489  -0.1388  0.0366  1.0000  -2.5135   0.0000   0.0000   0.0000   0.3382
  23.300   1.1259   0.30235   0.29893  -0.1399  0.0364  1.0000  -2.4732   0.0000   0.0000   0.0000   0.3390
  23.400   1.1281   0.30410   0.30068  -0.1411  0.0363  1.0000  -2.4632   0.0000   0.0000   0.0000   0.3396
  23.500   1.1302   0.30578   0.30236  -0.1424  0.0363  1.0000  -2.4515   0.0000   0.0000   0.0000   0.3403
  23.600   1.1321   0.30739   0.30397  -0.1438  0.0362  1.0000  -2.4349   0.0000   0.0000   0.0000   0.3411
  23.700   1.1334   0.30889   0.30547  -0.1456  0.0361  1.0000  -2.4021   0.0000   0.0000   0.0000   0.3423
  23.800   1.1341   0.31019   0.30677  -0.1478  0.0360  1.0000  -2.3536   0.0000   0.0000   0.0000   0.3440
  23.900   1.1326   0.31137   0.30792  -0.1518  0.0353  1.0000  -2.2377   0.0000   0.0000   0.0000   0.3475
  24.000   1.1338   0.31342   0.30997  -0.1545  0.0337  1.0000  -2.1641   0.0000   0.0000   0.0000   0.3497
  24.100   1.1363   0.31505   0.31161  -0.1557  0.0327  1.0000  -2.1582   0.0000   0.0000   0.0000   0.3502
  24.200   1.1389   0.31655   0.31311  -0.1567  0.0319  1.0000  -2.1618   0.0000   0.0000   0.0000   0.3505
  24.300   1.1416   0.31804   0.31460  -0.1576  0.0314  1.0000  -2.1677   0.0000   0.0000   0.0000   0.3507
  24.400   1.1443   0.31947   0.31604  -0.1585  0.0309  1.0000  -2.1758   0.0000   0.0000   0.0000   0.3509
  24.500   1.1470   0.32085   0.31743  -0.1594  0.0304  1.0000  -2.1863   0.0000   0.0000   0.0000   0.3511
  24.600   1.1497   0.32219   0.31877  -0.1602  0.0300  1.0000  -2.1995   0.0000   0.0000   0.0000   0.3512
  24.700   1.1525   0.32348   0.32006  -0.1609  0.0296  1.0000  -2.2155   0.0000   0.0000   0.0000   0.3512
  24.800   1.1553   0.32471   0.32130  -0.1616  0.0292  1.0000  -2.2349   0.0000   0.0000   0.0000   0.3512
  24.900   1.1582   0.32592   0.32252  -0.1622  0.0288  1.0000  -2.2580   0.0000   0.0000   0.0000   0.3510
  25.000   1.1612   0.32708   0.32369  -0.1628  0.0285  1.0000  -2.2854   0.0000   0.0000   0.0000   0.3508
  25.100   1.1643   0.32822   0.32484  -0.1632  0.0282  1.0000  -2.3179   0.0000   0.0000   0.0000   0.3505
  25.200   1.1675   0.32938   0.32600  -0.1634  0.0280  1.0000  -2.3566   0.0000   0.0000   0.0000   0.3500
  25.300   1.1710   0.33064   0.32728  -0.1635  0.0277  1.0000  -2.4029   0.0000   0.0000   0.0000   0.3493
  25.400   1.1749   0.33221   0.32886  -0.1631  0.0275  1.0000  -2.4605   0.0000   0.0000   0.0000   0.3483
  25.500   1.1792   0.33507   0.33177  -0.1621  0.0272  1.0000  -2.5312   0.0000   0.0000   0.0000   0.3466
  25.600   1.1803   0.33958   0.33625  -0.1628  0.0269  1.0000  -2.4831   0.0000   0.0000   0.0000   0.3469
  25.700   1.1825   0.34129   0.33796  -0.1640  0.0269  1.0000  -2.4554   0.0000   0.0000   0.0000   0.3474
  25.800   1.1846   0.34294   0.33961  -0.1654  0.0268  1.0000  -2.4256   0.0000   0.0000   0.0000   0.3481
  25.900   1.1863   0.34449   0.34117  -0.1670  0.0268  1.0000  -2.3837   0.0000   0.0000   0.0000   0.3490
  26.000   1.1879   0.34594   0.34261  -0.1686  0.0267  1.0000  -2.3388   0.0000   0.0000   0.0000   0.3500
  26.100   1.1890   0.34721   0.34387  -0.1708  0.0266  1.0000  -2.2783   0.0000   0.0000   0.0000   0.3514
  26.200   1.1902   0.34851   0.34516  -0.1732  0.0264  1.0000  -2.2052   0.0000   0.0000   0.0000   0.3530
  26.300   1.1918   0.35022   0.34687  -0.1760  0.0258  1.0000  -2.1089   0.0000   0.0000   0.0000   0.3550
  26.400   1.1944   0.35221   0.34886  -0.1777  0.0250  1.0000  -2.0591   0.0000   0.0000   0.0000   0.3559
  26.500   1.1969   0.35399   0.35064  -0.1789  0.0244  1.0000  -2.0397   0.0000   0.0000   0.0000   0.3564
  26.600   1.1995   0.35568   0.35234  -0.1800  0.0239  1.0000  -2.0289   0.0000   0.0000   0.0000   0.3567
  26.700   1.2020   0.35730   0.35396  -0.1810  0.0234  1.0000  -2.0221   0.0000   0.0000   0.0000   0.3569
  26.800   1.2045   0.35891   0.35557  -0.1820  0.0230  1.0000  -2.0181   0.0000   0.0000   0.0000   0.3571
  26.900   1.2070   0.36048   0.35714  -0.1829  0.0226  1.0000  -2.0161   0.0000   0.0000   0.0000   0.3573
  27.000   1.2095   0.36202   0.35869  -0.1839  0.0223  1.0000  -2.0160   0.0000   0.0000   0.0000   0.3575
  27.100   1.2119   0.36353   0.36021  -0.1848  0.0220  1.0000  -2.0174   0.0000   0.0000   0.0000   0.3577
  27.200   1.2144   0.36503   0.36171  -0.1857  0.0217  1.0000  -2.0204   0.0000   0.0000   0.0000   0.3578
  27.300   1.2169   0.36650   0.36319  -0.1866  0.0214  1.0000  -2.0249   0.0000   0.0000   0.0000   0.3579
  27.400   1.2194   0.36795   0.36464  -0.1875  0.0212  1.0000  -2.0309   0.0000   0.0000   0.0000   0.3581
  27.500   1.2218   0.36938   0.36608  -0.1884  0.0210  1.0000  -2.0384   0.0000   0.0000   0.0000   0.3581
  27.600   1.2242   0.37078   0.36749  -0.1892  0.0208  1.0000  -2.0475   0.0000   0.0000   0.0000   0.3582
  27.700   1.2267   0.37217   0.36888  -0.1901  0.0206  1.0000  -2.0583   0.0000   0.0000   0.0000   0.3583
  27.800   1.2291   0.37355   0.37027  -0.1909  0.0204  1.0000  -2.0708   0.0000   0.0000   0.0000   0.3583
  27.900   1.2315   0.37491   0.37164  -0.1916  0.0202  1.0000  -2.0852   0.0000   0.0000   0.0000   0.3583
  28.000   1.2340   0.37627   0.37300  -0.1924  0.0200  1.0000  -2.1014   0.0000   0.0000   0.0000   0.3582
  28.100   1.2364   0.37763   0.37437  -0.1931  0.0199  1.0000  -2.1197   0.0000   0.0000   0.0000   0.3582
  28.200   1.2388   0.37903   0.37578  -0.1937  0.0197  1.0000  -2.1403   0.0000   0.0000   0.0000   0.3580
  28.300   1.2412   0.38045   0.37720  -0.1943  0.0196  1.0000  -2.1635   0.0000   0.0000   0.0000   0.3579
  28.400   1.2437   0.38194   0.37870  -0.1948  0.0195  1.0000  -2.1980   0.0000   0.0000   0.0000   0.3576
  28.500   1.2462   0.38357   0.38034  -0.1952  0.0194  1.0000  -2.2362   0.0000   0.0000   0.0000   0.3573
  28.600   1.2488   0.38547   0.38226  -0.1954  0.0192  1.0000  -2.2790   0.0000   0.0000   0.0000   0.3568
  28.700   1.2517   0.38805   0.38485  -0.1952  0.0191  1.0000  -2.3296   0.0000   0.0000   0.0000   0.3560
  28.800   1.2539   0.39408   0.39086  -0.1945  0.0188  1.0000  -2.3560   0.0000   0.0000   0.0000   0.3549
  28.900   1.2561   0.39575   0.39256  -0.1956  0.0188  1.0000  -2.3571   0.0000   0.0000   0.0000   0.3552
  29.000   1.2582   0.39742   0.39424  -0.1967  0.0188  1.0000  -2.3588   0.0000   0.0000   0.0000   0.3555
  29.100   1.2604   0.39908   0.39589  -0.1978  0.0188  1.0000  -2.3607   0.0000   0.0000   0.0000   0.3558
  29.200   1.2625   0.40068   0.39750  -0.1990  0.0188  1.0000  -2.3623   0.0000   0.0000   0.0000   0.3561
  29.300   1.2645   0.40222   0.39905  -0.2002  0.0188  1.0000  -2.3596   0.0000   0.0000   0.0000   0.3566
  29.400   1.2665   0.40375   0.40057  -0.2014  0.0188  1.0000  -2.3568   0.0000   0.0000   0.0000   0.3570
  29.500   1.2685   0.40524   0.40207  -0.2027  0.0188  1.0000  -2.3535   0.0000   0.0000   0.0000   0.3574
  29.600   1.2704   0.40667   0.40351  -0.2040  0.0187  1.0000  -2.3479   0.0000   0.0000   0.0000   0.3578
  29.700   1.2723   0.40809   0.40492  -0.2053  0.0187  1.0000  -2.3416   0.0000   0.0000   0.0000   0.3583
  29.800   1.2742   0.40949   0.40633  -0.2066  0.0187  1.0000  -2.3351   0.0000   0.0000   0.0000   0.3588
  29.900   1.2761   0.41089   0.40774  -0.2080  0.0187  1.0000  -2.3284   0.0000   0.0000   0.0000   0.3593
  30.000   1.2780   0.41229   0.40913  -0.2093  0.0186  1.0000  -2.3213   0.0000   0.0000   0.0000   0.3598


