xflr5 v6.61

 Calculated polar for: NACA 4412

 1 1 Reynolds number fixed          Mach number fixed         

 xtrf =   1.000 (top)        1.000 (bottom)
 Mach =   0.000     Re =     0.030 e 6     Ncrit =   9.000

  alpha     CL        CD       CDp       Cm    Top Xtr Bot Xtr   Cpmin    Chinge    XCp    
 ------- -------- --------- --------- -------- ------- ------- -------- --------- ---------
   0.000   0.0029   0.03553   0.02479  -0.0487  1.0000  1.0000  -1.0098   0.0000   0.0000   0.0000  17.0023
   0.500   0.0419   0.03760   0.02600  -0.0497  1.0000  1.0000  -0.8740   0.0000   0.0000   0.0000   1.4433
   1.000   0.0780   0.03984   0.02762  -0.0504  1.0000  1.0000  -0.7547   0.0000   0.0000   0.0000   0.8961
   1.500   0.1129   0.04226   0.02960  -0.0510  1.0000  1.0000  -0.6383   0.0000   0.0000   0.0000   0.6996
   2.000   0.1468   0.04485   0.03185  -0.0517  1.0000  1.0000  -0.5350   0.0000   0.0000   0.0000   0.5980
   2.500   0.1799   0.04763   0.03437  -0.0523  1.0000  1.0000  -0.5145   0.0000   0.0000   0.0000   0.5361
   3.000   0.2120   0.05059   0.03712  -0.0530  1.0000  1.0000  -0.5314   0.0000   0.0000   0.0000   0.4946
   3.500   0.2432   0.05374   0.04012  -0.0538  1.0000  1.0000  -0.5495   0.0000   0.0000   0.0000   0.4649
   4.000   0.2734   0.05711   0.04337  -0.0546  1.0000  1.0000  -0.5681   0.0000   0.0000   0.0000   0.4428
   4.500   0.3027   0.06070   0.04688  -0.0555  1.0000  1.0000  -0.5866   0.0000   0.0000   0.0000   0.4258
   5.000   0.3311   0.06451   0.05067  -0.0564  1.0000  1.0000  -0.6068   0.0000   0.0000   0.0000   0.4125
   5.500   0.3585   0.06855   0.05472  -0.0575  1.0000  1.0000  -0.6281   0.0000   0.0000   0.0000   0.4018
   6.000   0.3849   0.07283   0.05904  -0.0586  1.0000  1.0000  -0.6503   0.0000   0.0000   0.0000   0.3933
   6.500   0.4101   0.07736   0.06368  -0.0599  1.0000  1.0000  -0.6741   0.0000   0.0000   0.0000   0.3864
   7.000   0.4502   0.08348   0.06990  -0.0644  0.9932  1.0000  -0.7140   0.0000   0.0000   0.0000   0.3830
   7.500   0.5102   0.09180   0.07841  -0.0733  0.9629  1.0000  -0.7784   0.0000   0.0000   0.0000   0.3832
   8.000   0.5561   0.09879   0.08563  -0.0790  0.9252  1.0000  -0.8411   0.0000   0.0000   0.0000   0.3812
   8.500   0.5802   0.10394   0.09099  -0.0805  0.8908  1.0000  -0.8896   0.0000   0.0000   0.0000   0.3775
   9.000   0.6331   0.11303   0.10043  -0.0868  0.8529  1.0000  -0.9865   0.0000   0.0000   0.0000   0.3754
   9.500   0.6466   0.11768   0.10528  -0.0864  0.8169  1.0000  -1.0378   0.0000   0.0000   0.0000   0.3714
  10.000   0.6895   0.12603   0.11393  -0.0902  0.7732  1.0000  -1.1373   0.0000   0.0000   0.0000   0.3683
  10.500   0.7100   0.13301   0.12112  -0.0912  0.7377  1.0000  -1.2055   0.0000   0.0000   0.0000   0.3654
  11.000   0.7256   0.13831   0.12666  -0.0910  0.6940  1.0000  -1.2605   0.0000   0.0000   0.0000   0.3620
  11.500   0.7683   0.14964   0.13841  -0.0945  0.6527  1.0000  -1.3691   0.0000   0.0000   0.0000   0.3591
  12.000   0.7654   0.15287   0.14179  -0.0927  0.6126  1.0000  -1.3871   0.0000   0.0000   0.0000   0.3567
  12.500   0.8185   0.16684   0.15609  -0.0959  0.5655  1.0000  -1.5111   0.0000   0.0000   0.0000   0.3525
  13.000   0.8182   0.17170   0.16108  -0.0954  0.5344  1.0000  -1.5115   0.0000   0.0000   0.0000   0.3512
  13.500   0.8303   0.17927   0.16881  -0.0961  0.5051  1.0000  -1.5256   0.0000   0.0000   0.0000   0.3498
  14.000   0.8375   0.18519   0.17484  -0.0966  0.4743  1.0000  -1.5445   0.0000   0.0000   0.0000   0.3488
  14.500   0.8688   0.19817   0.18801  -0.0986  0.4496  1.0000  -1.6097   0.0000   0.0000   0.0000   0.3464
  15.000   0.8853   0.20669   0.19664  -0.0996  0.4218  1.0000  -1.6394   0.0000   0.0000   0.0000   0.3447
  15.500   0.8708   0.20610   0.19604  -0.1014  0.4060  1.0000  -1.5850   0.0000   0.0000   0.0000   0.3478
  16.000   0.8947   0.21821   0.20837  -0.1036  0.3923  1.0000  -1.6128   0.0000   0.0000   0.0000   0.3464
  16.500   0.9220   0.23051   0.22080  -0.1048  0.3671  1.0000  -1.6497   0.0000   0.0000   0.0000   0.3437
  17.000   0.9125   0.22864   0.21889  -0.1082  0.3528  1.0000  -1.5904   0.0000   0.0000   0.0000   0.3475
  17.500   0.9465   0.24622   0.23663  -0.1096  0.3406  1.0000  -1.6483   0.0000   0.0000   0.0000   0.3442
  18.000   0.9429   0.24399   0.23437  -0.1134  0.3237  1.0000  -1.6210   0.0000   0.0000   0.0000   0.3475
  18.500   0.9572   0.25159   0.24200  -0.1161  0.3082  1.0000  -1.6433   0.0000   0.0000   0.0000   0.3477
  19.000   0.9855   0.26546   0.25603  -0.1171  0.2919  1.0000  -1.7118   0.0000   0.0000   0.0000   0.3445
  19.500   0.9873   0.26605   0.25656  -0.1223  0.2835  1.0000  -1.6758   0.0000   0.0000   0.0000   0.3484
  20.000   1.0088   0.27603   0.26673  -0.1243  0.2691  1.0000  -1.7147   0.0000   0.0000   0.0000   0.3469


