xflr5 v6.61

 Calculated polar for: NACA 4412

 1 1 Reynolds number fixed          Mach number fixed         

 xtrf =   1.000 (top)        1.000 (bottom)
 Mach =   0.000     Re =     0.160 e 6     Ncrit =   9.000

  alpha     CL        CD       CDp       Cm    Top Xtr Bot Xtr   Cpmin    Chinge    XCp    
 ------- -------- --------- --------- -------- ------- ------- -------- --------- ---------
   0.000   0.4800   0.01169   0.00573  -0.1078  0.7826  1.0000  -0.7666   0.0000   0.0000   0.0000   0.4736
   0.500   0.5335   0.01178   0.00553  -0.1069  0.7582  1.0000  -0.8097   0.0000   0.0000   0.0000   0.4487
   1.000   0.5871   0.01193   0.00542  -0.1060  0.7332  1.0000  -0.8546   0.0000   0.0000   0.0000   0.4282
   1.500   0.6412   0.01218   0.00541  -0.1053  0.7097  1.0000  -0.9028   0.0000   0.0000   0.0000   0.4113
   2.000   0.6942   0.01248   0.00551  -0.1044  0.6858  1.0000  -0.9524   0.0000   0.0000   0.0000   0.3970
   2.500   0.7455   0.01286   0.00583  -0.1035  0.6633  1.0000  -1.0036   0.0000   0.0000   0.0000   0.3848
   3.000   0.7981   0.01332   0.00616  -0.1027  0.6426  1.0000  -1.0601   0.0000   0.0000   0.0000   0.3742
   3.500   0.8525   0.01381   0.00647  -0.1023  0.6236  1.0000  -1.1242   0.0000   0.0000   0.0000   0.3650
   4.000   0.9030   0.01426   0.00699  -0.1013  0.6041  1.0000  -1.1935   0.0000   0.0000   0.0000   0.3566
   4.500   0.9549   0.01483   0.00754  -0.1005  0.5859  1.0000  -1.2929   0.0000   0.0000   0.0000   0.3492
   5.000   1.0084   0.01538   0.00797  -0.0999  0.5674  1.0000  -1.4474   0.0000   0.0000   0.0000   0.3424
   5.500   1.0570   0.01589   0.00860  -0.0986  0.5479  1.0000  -1.6253   0.0000   0.0000   0.0000   0.3361
   6.000   1.1072   0.01647   0.00925  -0.0975  0.5279  1.0000  -1.8293   0.0000   0.0000   0.0000   0.3302
   6.500   1.1567   0.01695   0.00967  -0.0962  0.5046  1.0000  -2.0671   0.0000   0.0000   0.0000   0.3246
   7.000   1.2034   0.01736   0.01005  -0.0943  0.4782  1.0000  -2.3164   0.0000   0.0000   0.0000   0.3192
   7.500   1.2472   0.01779   0.01051  -0.0920  0.4507  1.0000  -2.5668   0.0000   0.0000   0.0000   0.3138
   8.000   1.2871   0.01825   0.01112  -0.0890  0.4210  1.0000  -2.8482   0.0000   0.0000   0.0000   0.3086
   8.500   1.3230   0.01876   0.01180  -0.0855  0.3858  1.0000  -3.1355   0.0000   0.0000   0.0000   0.3033
   9.000   1.3520   0.01958   0.01254  -0.0809  0.3420  1.0000  -3.4091   0.0000   0.0000   0.0000   0.2977
   9.500   1.3709   0.02090   0.01376  -0.0750  0.2854  1.0000  -3.6521   0.0000   0.0000   0.0000   0.2918
  10.000   1.3710   0.02324   0.01576  -0.0669  0.2172  1.0000  -3.8314   0.0000   0.0000   0.0000   0.2851
  10.500   1.3619   0.02687   0.01901  -0.0590  0.1519  1.0000  -3.9667   0.0000   0.0000   0.0000   0.2789
  11.000   1.3539   0.03109   0.02301  -0.0527  0.1142  1.0000  -4.0954   0.0000   0.0000   0.0000   0.2736
  11.500   1.3503   0.03550   0.02740  -0.0480  0.0940  1.0000  -4.2309   0.0000   0.0000   0.0000   0.2693
  12.000   1.3483   0.04020   0.03213  -0.0441  0.0815  1.0000  -4.3622   0.0000   0.0000   0.0000   0.2656
  12.500   1.3479   0.04507   0.03696  -0.0406  0.0721  1.0000  -4.5363   0.0000   0.0000   0.0000   0.2621
  13.000   1.3562   0.04930   0.04142  -0.0385  0.0645  1.0000  -4.7533   0.0000   0.0000   0.0000   0.2594
  13.500   1.3635   0.05383   0.04596  -0.0359  0.0579  1.0000  -4.9645   0.0000   0.0000   0.0000   0.2565
  14.000   1.3741   0.05820   0.05064  -0.0340  0.0532  1.0000  -5.1777   0.0000   0.0000   0.0000   0.2539
  14.500   1.3852   0.06257   0.05508  -0.0322  0.0493  1.0000  -5.4075   0.0000   0.0000   0.0000   0.2515
  15.000   1.3999   0.06741   0.06019  -0.0296  0.0461  1.0000  -5.6107   0.0000   0.0000   0.0000   0.2485
  15.500   1.3992   0.07363   0.06683  -0.0287  0.0441  1.0000  -5.7404   0.0000   0.0000   0.0000   0.2469
  16.000   1.3923   0.08081   0.07443  -0.0285  0.0423  1.0000  -5.8292   0.0000   0.0000   0.0000   0.2458
  16.500   1.3782   0.08902   0.08301  -0.0295  0.0408  1.0000  -5.8850   0.0000   0.0000   0.0000   0.2457
  17.000   1.3626   0.09770   0.09199  -0.0316  0.0393  1.0000  -5.9407   0.0000   0.0000   0.0000   0.2464
  17.500   1.3479   0.10662   0.10115  -0.0342  0.0377  1.0000  -5.9994   0.0000   0.0000   0.0000   0.2475
  18.000   1.3115   0.11979   0.11473  -0.0397  0.0370  1.0000  -5.8637   0.0000   0.0000   0.0000   0.2514
  18.500   1.2653   0.13616   0.13152  -0.0490  0.0370  1.0000  -5.6157   0.0000   0.0000   0.0000   0.2587
  19.500   1.0218   0.24440   0.24035  -0.1114  0.0689  1.0000  -2.1123   0.0000   0.0000   0.0000   0.3323
  20.000   1.0343   0.25136   0.24733  -0.1159  0.0633  1.0000  -2.1087   0.0000   0.0000   0.0000   0.3343


