xflr5 v6.61

 Calculated polar for: NACA 4412

 1 1 Reynolds number fixed          Mach number fixed         

 xtrf =   1.000 (top)        1.000 (bottom)
 Mach =   0.000     Re =     0.200 e 6     Ncrit =   9.000

  alpha     CL        CD       CDp       Cm    Top Xtr Bot Xtr   Cpmin    Chinge    XCp    
 ------- -------- --------- --------- -------- ------- ------- -------- --------- ---------
   0.000   0.4860   0.01007   0.00450  -0.1076  0.7629  1.0000  -0.7739   0.0000   0.0000   0.0000   0.4702
   0.500   0.5382   0.01022   0.00435  -0.1065  0.7368  1.0000  -0.8164   0.0000   0.0000   0.0000   0.4461
   1.000   0.5907   0.01044   0.00429  -0.1055  0.7108  1.0000  -0.8609   0.0000   0.0000   0.0000   0.4262
   1.500   0.6428   0.01071   0.00434  -0.1045  0.6856  1.0000  -0.9078   0.0000   0.0000   0.0000   0.4097
   2.000   0.6945   0.01102   0.00450  -0.1036  0.6615  1.0000  -0.9563   0.0000   0.0000   0.0000   0.3957
   2.500   0.7467   0.01140   0.00477  -0.1028  0.6394  1.0000  -1.0083   0.0000   0.0000   0.0000   0.3836
   3.000   0.7999   0.01184   0.00504  -0.1022  0.6196  1.0000  -1.0656   0.0000   0.0000   0.0000   0.3732
   3.500   0.8524   0.01224   0.00534  -0.1015  0.6000  1.0000  -1.1283   0.0000   0.0000   0.0000   0.3639
   4.000   0.9042   0.01269   0.00583  -0.1007  0.5816  1.0000  -1.1986   0.0000   0.0000   0.0000   0.3558
   4.500   0.9574   0.01324   0.00625  -0.1002  0.5639  1.0000  -1.3011   0.0000   0.0000   0.0000   0.3485
   5.000   1.0079   0.01364   0.00670  -0.0992  0.5456  1.0000  -1.4528   0.0000   0.0000   0.0000   0.3417
   5.500   1.0589   0.01418   0.00724  -0.0983  0.5271  1.0000  -1.6373   0.0000   0.0000   0.0000   0.3355
   6.000   1.1097   0.01471   0.00774  -0.0973  0.5063  1.0000  -1.8437   0.0000   0.0000   0.0000   0.3297
   6.500   1.1565   0.01506   0.00812  -0.0955  0.4824  1.0000  -2.0790   0.0000   0.0000   0.0000   0.3240
   7.000   1.2017   0.01547   0.00859  -0.0935  0.4568  1.0000  -2.3245   0.0000   0.0000   0.0000   0.3186
   7.500   1.2455   0.01595   0.00911  -0.0913  0.4296  1.0000  -2.5748   0.0000   0.0000   0.0000   0.3134
   8.000   1.2866   0.01649   0.00973  -0.0887  0.3990  1.0000  -2.8630   0.0000   0.0000   0.0000   0.3083
   8.500   1.3235   0.01715   0.01042  -0.0854  0.3617  1.0000  -3.1545   0.0000   0.0000   0.0000   0.3032
   9.000   1.3523   0.01818   0.01133  -0.0810  0.3135  1.0000  -3.4276   0.0000   0.0000   0.0000   0.2978
   9.500   1.3688   0.01975   0.01269  -0.0748  0.2519  1.0000  -3.6639   0.0000   0.0000   0.0000   0.2918
  10.000   1.3702   0.02237   0.01494  -0.0672  0.1809  1.0000  -3.8467   0.0000   0.0000   0.0000   0.2854
  10.500   1.3670   0.02582   0.01804  -0.0602  0.1251  1.0000  -4.0060   0.0000   0.0000   0.0000   0.2796
  11.000   1.3658   0.02959   0.02169  -0.0545  0.0958  1.0000  -4.1623   0.0000   0.0000   0.0000   0.2746
  11.500   1.3657   0.03369   0.02582  -0.0499  0.0799  1.0000  -4.3159   0.0000   0.0000   0.0000   0.2703
  12.000   1.3635   0.03833   0.03052  -0.0460  0.0697  1.0000  -4.4662   0.0000   0.0000   0.0000   0.2666
  12.500   1.3656   0.04294   0.03521  -0.0433  0.0615  1.0000  -4.6688   0.0000   0.0000   0.0000   0.2637
  13.000   1.3689   0.04762   0.04006  -0.0409  0.0553  1.0000  -4.8674   0.0000   0.0000   0.0000   0.2608
  13.500   1.3730   0.05244   0.04504  -0.0391  0.0505  1.0000  -5.0731   0.0000   0.0000   0.0000   0.2585
  14.000   1.3777   0.05722   0.04988  -0.0363  0.0464  1.0000  -5.2639   0.0000   0.0000   0.0000   0.2554
  14.500   1.3863   0.06187   0.05482  -0.0349  0.0435  1.0000  -5.4765   0.0000   0.0000   0.0000   0.2533
  15.000   1.3933   0.06682   0.05996  -0.0337  0.0407  1.0000  -5.6850   0.0000   0.0000   0.0000   0.2513
  15.500   1.3997   0.07192   0.06520  -0.0326  0.0383  1.0000  -5.8925   0.0000   0.0000   0.0000   0.2494
  16.000   1.4006   0.07817   0.07174  -0.0307  0.0359  1.0000  -6.0218   0.0000   0.0000   0.0000   0.2471
  16.500   1.3913   0.08566   0.07963  -0.0319  0.0346  1.0000  -6.1239   0.0000   0.0000   0.0000   0.2470
  17.000   1.3788   0.09405   0.08842  -0.0338  0.0331  1.0000  -6.1992   0.0000   0.0000   0.0000   0.2475
  17.500   1.3630   0.10336   0.09808  -0.0367  0.0319  1.0000  -6.2389   0.0000   0.0000   0.0000   0.2488
  18.000   1.3390   0.11455   0.10966  -0.0410  0.0312  1.0000  -6.1964   0.0000   0.0000   0.0000   0.2514
  18.500   1.3048   0.12828   0.12381  -0.0477  0.0309  1.0000  -6.0515   0.0000   0.0000   0.0000   0.2562
  19.000   1.2490   0.14821   0.14425  -0.0593  0.0313  1.0000  -5.6691   0.0000   0.0000   0.0000   0.2663
  20.000   1.0362   0.24966   0.24605  -0.1160  0.0526  1.0000  -2.1601   0.0000   0.0000   0.0000   0.3341


