xflr5 v6.61

 Calculated polar for: NACA 4412

 1 1 Reynolds number fixed          Mach number fixed         

 xtrf =   1.000 (top)        1.000 (bottom)
 Mach =   0.000     Re =     0.040 e 6     Ncrit =   9.000

  alpha     CL        CD       CDp       Cm    Top Xtr Bot Xtr   Cpmin    Chinge    XCp    
 ------- -------- --------- --------- -------- ------- ------- -------- --------- ---------
   0.000   0.0594   0.03490   0.02539  -0.0604  0.9754  1.0000  -0.9268   0.0000   0.0000   0.0000   1.2743
   0.500   0.1371   0.03760   0.02719  -0.0677  0.9505  1.0000  -0.7415   0.0000   0.0000   0.0000   0.7448
   1.000   0.2121   0.04032   0.02936  -0.0742  0.9261  1.0000  -0.5665   0.0000   0.0000   0.0000   0.5988
   1.500   0.2724   0.04287   0.03156  -0.0780  0.9038  1.0000  -0.5801   0.0000   0.0000   0.0000   0.5344
   2.000   0.3240   0.04539   0.03384  -0.0803  0.8818  1.0000  -0.6127   0.0000   0.0000   0.0000   0.4951
   2.500   0.3672   0.04808   0.03635  -0.0815  0.8619  1.0000  -0.6409   0.0000   0.0000   0.0000   0.4683
   3.000   0.4152   0.05097   0.03910  -0.0832  0.8416  1.0000  -0.6761   0.0000   0.0000   0.0000   0.4462
   3.500   0.4735   0.05415   0.04217  -0.0863  0.8222  1.0000  -0.7216   0.0000   0.0000   0.0000   0.4275
   4.000   0.5085   0.05718   0.04519  -0.0863  0.8024  1.0000  -0.7513   0.0000   0.0000   0.0000   0.4144
   4.500   0.5319   0.06077   0.04884  -0.0853  0.7857  1.0000  -0.7732   0.0000   0.0000   0.0000   0.4045
   5.000   0.5800   0.06439   0.05248  -0.0869  0.7647  1.0000  -0.8219   0.0000   0.0000   0.0000   0.3935
   5.500   0.6110   0.06826   0.05642  -0.0870  0.7468  1.0000  -0.8596   0.0000   0.0000   0.0000   0.3854
   6.000   0.6271   0.07268   0.06094  -0.0858  0.7302  1.0000  -0.8868   0.0000   0.0000   0.0000   0.3793
   6.500   0.6691   0.07694   0.06532  -0.0867  0.7072  1.0000  -0.9531   0.0000   0.0000   0.0000   0.3716
   7.000   0.6763   0.08207   0.07059  -0.0856  0.6945  1.0000  -0.9835   0.0000   0.0000   0.0000   0.3680
   7.500   0.7013   0.08712   0.07588  -0.0855  0.6732  1.0000  -1.0497   0.0000   0.0000   0.0000   0.3628
   8.000   0.6994   0.09496   0.08389  -0.0869  0.6893  1.0000  -1.0652   0.0000   0.0000   0.0000   0.3645
   8.500   0.7297   0.09911   0.08822  -0.0856  0.6444  1.0000  -1.1626   0.0000   0.0000   0.0000   0.3570
   9.000   0.7830   0.10223   0.09157  -0.0843  0.5880  1.0000  -1.3263   0.0000   0.0000   0.0000   0.3469
   9.500   0.8006   0.10739   0.09694  -0.0831  0.5549  1.0000  -1.4135   0.0000   0.0000   0.0000   0.3425
  10.000   0.7852   0.11784   0.10758  -0.0859  0.5729  1.0000  -1.3870   0.0000   0.0000   0.0000   0.3475
  10.500   0.9050   0.11159   0.10187  -0.0773  0.4533  1.0000  -1.8349   0.0000   0.0000   0.0000   0.3228
  11.000   0.9062   0.11762   0.10806  -0.0754  0.4164  1.0000  -1.8899   0.0000   0.0000   0.0000   0.3199
  11.500   0.9096   0.12367   0.11430  -0.0740  0.3794  1.0000  -1.9406   0.0000   0.0000   0.0000   0.3173
  12.000   0.9426   0.12623   0.11712  -0.0702  0.3350  1.0000  -2.1094   0.0000   0.0000   0.0000   0.3096
  12.500   0.9378   0.13476   0.12577  -0.0705  0.3072  1.0000  -2.1169   0.0000   0.0000   0.0000   0.3098
  13.000   0.9365   0.14279   0.13400  -0.0709  0.2801  1.0000  -2.1332   0.0000   0.0000   0.0000   0.3096
  13.500   0.9893   0.14185   0.13335  -0.0643  0.2414  1.0000  -2.4205   0.0000   0.0000   0.0000   0.2978
  14.000   0.9530   0.15907   0.15051  -0.0719  0.2399  1.0000  -2.1998   0.0000   0.0000   0.0000   0.3079
  14.500   0.9522   0.17300   0.16453  -0.0764  0.2431  1.0000  -2.1203   0.0000   0.0000   0.0000   0.3122
  15.500   0.8870   0.20209   0.19354  -0.0971  0.3263  1.0000  -1.6465   0.0000   0.0000   0.0000   0.3407
  16.000   0.9172   0.21535   0.20692  -0.0982  0.3140  1.0000  -1.6929   0.0000   0.0000   0.0000   0.3378
  16.500   0.9119   0.21769   0.20926  -0.1019  0.2991  1.0000  -1.6380   0.0000   0.0000   0.0000   0.3415
  17.000   0.9349   0.22942   0.22107  -0.1035  0.2881  1.0000  -1.6594   0.0000   0.0000   0.0000   0.3398
  18.000   0.9510   0.24019   0.23188  -0.1101  0.2578  1.0000  -1.6707   0.0000   0.0000   0.0000   0.3430
  18.500   0.9771   0.25130   0.24311  -0.1110  0.2446  1.0000  -1.7433   0.0000   0.0000   0.0000   0.3400
  19.000   0.9809   0.25603   0.24780  -0.1161  0.2375  1.0000  -1.7087   0.0000   0.0000   0.0000   0.3438
  19.500   1.0027   0.26515   0.25709  -0.1176  0.2221  1.0000  -1.7619   0.0000   0.0000   0.0000   0.3418
  20.000   1.0083   0.26830   0.26019  -0.1231  0.2103  1.0000  -1.7257   0.0000   0.0000   0.0000   0.3455


