xflr5 v6.61

 Calculated polar for: NACA 4412

 1 1 Reynolds number fixed          Mach number fixed         

 xtrf =   1.000 (top)        1.000 (bottom)
 Mach =   0.000     Re =     0.021 e 6     Ncrit =   9.000

  alpha     CL        CD       CDp       Cm    Top Xtr Bot Xtr   Cpmin    Chinge    XCp    
 ------- -------- --------- --------- -------- ------- ------- -------- --------- ---------
   0.000   0.0017   0.03849   0.02511  -0.0464  1.0000  1.0000  -0.9913   0.0000   0.0000   0.0000  27.7136
   0.100   0.0097   0.03886   0.02527  -0.0467  1.0000  1.0000  -0.9625   0.0000   0.0000   0.0000   5.0913
   0.200   0.0175   0.03923   0.02546  -0.0468  1.0000  1.0000  -0.9338   0.0000   0.0000   0.0000   2.9429
   0.300   0.0252   0.03962   0.02567  -0.0470  1.0000  1.0000  -0.9086   0.0000   0.0000   0.0000   2.1293
   0.400   0.0327   0.04001   0.02590  -0.0471  1.0000  1.0000  -0.8847   0.0000   0.0000   0.0000   1.7000
   0.500   0.0401   0.04041   0.02615  -0.0473  1.0000  1.0000  -0.8609   0.0000   0.0000   0.0000   1.4340
   0.600   0.0474   0.04081   0.02641  -0.0474  1.0000  1.0000  -0.8371   0.0000   0.0000   0.0000   1.2526
   0.700   0.0547   0.04123   0.02669  -0.0475  1.0000  1.0000  -0.8134   0.0000   0.0000   0.0000   1.1208
   0.800   0.0619   0.04165   0.02691  -0.0476  1.0000  1.0000  -0.7898   0.0000   0.0000   0.0000   1.0203
   0.900   0.0690   0.04208   0.02722  -0.0477  1.0000  1.0000  -0.7663   0.0000   0.0000   0.0000   0.9415
   1.000   0.0761   0.04252   0.02755  -0.0478  1.0000  1.0000  -0.7428   0.0000   0.0000   0.0000   0.8778
   1.100   0.0831   0.04296   0.02788  -0.0479  1.0000  1.0000  -0.7196   0.0000   0.0000   0.0000   0.8254
   1.200   0.0901   0.04342   0.02823  -0.0480  1.0000  1.0000  -0.6964   0.0000   0.0000   0.0000   0.7813
   1.300   0.0971   0.04388   0.02859  -0.0481  1.0000  1.0000  -0.6734   0.0000   0.0000   0.0000   0.7438
   1.400   0.1040   0.04435   0.02896  -0.0482  1.0000  1.0000  -0.6505   0.0000   0.0000   0.0000   0.7115
   1.500   0.1108   0.04482   0.02935  -0.0483  1.0000  1.0000  -0.6277   0.0000   0.0000   0.0000   0.6834
   1.600   0.1176   0.04531   0.02974  -0.0484  1.0000  1.0000  -0.6052   0.0000   0.0000   0.0000   0.6587
   1.700   0.1244   0.04580   0.03015  -0.0485  1.0000  1.0000  -0.5854   0.0000   0.0000   0.0000   0.6368
   1.800   0.1312   0.04630   0.03057  -0.0487  1.0000  1.0000  -0.5663   0.0000   0.0000   0.0000   0.6173
   1.900   0.1379   0.04680   0.03100  -0.0488  1.0000  1.0000  -0.5473   0.0000   0.0000   0.0000   0.5998
   2.000   0.1446   0.04732   0.03144  -0.0489  1.0000  1.0000  -0.5284   0.0000   0.0000   0.0000   0.5840
   2.100   0.1512   0.04784   0.03190  -0.0490  1.0000  1.0000  -0.5097   0.0000   0.0000   0.0000   0.5697
   2.200   0.1578   0.04837   0.03236  -0.0491  1.0000  1.0000  -0.5102   0.0000   0.0000   0.0000   0.5566
   2.300   0.1644   0.04890   0.03283  -0.0492  1.0000  1.0000  -0.5140   0.0000   0.0000   0.0000   0.5447
   2.400   0.1710   0.04945   0.03332  -0.0493  1.0000  1.0000  -0.5176   0.0000   0.0000   0.0000   0.5338
   2.500   0.1775   0.05000   0.03381  -0.0495  1.0000  1.0000  -0.5212   0.0000   0.0000   0.0000   0.5237
   2.600   0.1839   0.05056   0.03432  -0.0496  1.0000  1.0000  -0.5246   0.0000   0.0000   0.0000   0.5144
   2.700   0.1904   0.05112   0.03483  -0.0497  1.0000  1.0000  -0.5280   0.0000   0.0000   0.0000   0.5057
   2.800   0.1968   0.05170   0.03536  -0.0498  1.0000  1.0000  -0.5314   0.0000   0.0000   0.0000   0.4977
   2.900   0.2032   0.05228   0.03590  -0.0500  1.0000  1.0000  -0.5346   0.0000   0.0000   0.0000   0.4903
   3.000   0.2095   0.05287   0.03644  -0.0501  1.0000  1.0000  -0.5379   0.0000   0.0000   0.0000   0.4833
   3.100   0.2158   0.05347   0.03700  -0.0502  1.0000  1.0000  -0.5418   0.0000   0.0000   0.0000   0.4768
   3.200   0.2221   0.05407   0.03757  -0.0504  1.0000  1.0000  -0.5457   0.0000   0.0000   0.0000   0.4707
   3.300   0.2283   0.05469   0.03815  -0.0505  1.0000  1.0000  -0.5494   0.0000   0.0000   0.0000   0.4650
   3.400   0.2345   0.05531   0.03872  -0.0506  1.0000  1.0000  -0.5531   0.0000   0.0000   0.0000   0.4597
   3.500   0.2406   0.05594   0.03932  -0.0508  1.0000  1.0000  -0.5567   0.0000   0.0000   0.0000   0.4546
   3.600   0.2467   0.05657   0.03992  -0.0509  1.0000  1.0000  -0.5601   0.0000   0.0000   0.0000   0.4498
   3.700   0.2528   0.05722   0.04054  -0.0511  1.0000  1.0000  -0.5635   0.0000   0.0000   0.0000   0.4453
   3.800   0.2588   0.05787   0.04116  -0.0512  1.0000  1.0000  -0.5670   0.0000   0.0000   0.0000   0.4411
   3.900   0.2648   0.05854   0.04180  -0.0514  1.0000  1.0000  -0.5711   0.0000   0.0000   0.0000   0.4371
   4.000   0.2708   0.05921   0.04245  -0.0515  1.0000  1.0000  -0.5752   0.0000   0.0000   0.0000   0.4332
   4.100   0.2767   0.05989   0.04311  -0.0517  1.0000  1.0000  -0.5791   0.0000   0.0000   0.0000   0.4296
   4.200   0.2826   0.06057   0.04377  -0.0518  1.0000  1.0000  -0.5829   0.0000   0.0000   0.0000   0.4262
   4.300   0.2885   0.06127   0.04445  -0.0520  1.0000  1.0000  -0.5867   0.0000   0.0000   0.0000   0.4229
   4.400   0.2943   0.06198   0.04514  -0.0522  1.0000  1.0000  -0.5903   0.0000   0.0000   0.0000   0.4198
   4.500   0.3001   0.06269   0.04585  -0.0523  1.0000  1.0000  -0.5939   0.0000   0.0000   0.0000   0.4169
   4.600   0.3058   0.06342   0.04656  -0.0525  1.0000  1.0000  -0.5980   0.0000   0.0000   0.0000   0.4140
   4.700   0.3115   0.06415   0.04728  -0.0527  1.0000  1.0000  -0.6023   0.0000   0.0000   0.0000   0.4114
   4.800   0.3172   0.06489   0.04801  -0.0529  1.0000  1.0000  -0.6066   0.0000   0.0000   0.0000   0.4088
   4.900   0.3228   0.06564   0.04876  -0.0531  1.0000  1.0000  -0.6107   0.0000   0.0000   0.0000   0.4064
   5.000   0.3284   0.06640   0.04951  -0.0532  1.0000  1.0000  -0.6147   0.0000   0.0000   0.0000   0.4040
   5.100   0.3340   0.06717   0.05028  -0.0534  1.0000  1.0000  -0.6186   0.0000   0.0000   0.0000   0.4018
   5.200   0.3395   0.06794   0.05106  -0.0536  1.0000  1.0000  -0.6224   0.0000   0.0000   0.0000   0.3997
   5.300   0.3449   0.06873   0.05184  -0.0538  1.0000  1.0000  -0.6269   0.0000   0.0000   0.0000   0.3976
   5.400   0.3504   0.06953   0.05264  -0.0540  1.0000  1.0000  -0.6315   0.0000   0.0000   0.0000   0.3957
   5.500   0.3558   0.07033   0.05345  -0.0542  1.0000  1.0000  -0.6360   0.0000   0.0000   0.0000   0.3938
   5.600   0.3611   0.07115   0.05427  -0.0545  1.0000  1.0000  -0.6404   0.0000   0.0000   0.0000   0.3920
   5.700   0.3664   0.07197   0.05511  -0.0547  1.0000  1.0000  -0.6446   0.0000   0.0000   0.0000   0.3903
   5.800   0.3717   0.07281   0.05595  -0.0549  1.0000  1.0000  -0.6488   0.0000   0.0000   0.0000   0.3887
   5.900   0.3769   0.07365   0.05680  -0.0551  1.0000  1.0000  -0.6533   0.0000   0.0000   0.0000   0.3871
   6.000   0.3821   0.07450   0.05767  -0.0553  1.0000  1.0000  -0.6584   0.0000   0.0000   0.0000   0.3856
   6.100   0.3873   0.07536   0.05855  -0.0556  1.0000  1.0000  -0.6633   0.0000   0.0000   0.0000   0.3842
   6.200   0.3924   0.07624   0.05949  -0.0558  1.0000  1.0000  -0.6681   0.0000   0.0000   0.0000   0.3828
   6.300   0.3974   0.07712   0.06038  -0.0560  1.0000  1.0000  -0.6727   0.0000   0.0000   0.0000   0.3815
   6.400   0.4024   0.07801   0.06129  -0.0563  1.0000  1.0000  -0.6772   0.0000   0.0000   0.0000   0.3802
   6.500   0.4074   0.07891   0.06221  -0.0565  1.0000  1.0000  -0.6824   0.0000   0.0000   0.0000   0.3790
   6.600   0.4123   0.07982   0.06314  -0.0568  1.0000  1.0000  -0.6879   0.0000   0.0000   0.0000   0.3779
   6.700   0.4172   0.08074   0.06408  -0.0570  1.0000  1.0000  -0.6932   0.0000   0.0000   0.0000   0.3767
   6.800   0.4221   0.08167   0.06503  -0.0573  1.0000  1.0000  -0.6985   0.0000   0.0000   0.0000   0.3757
   6.900   0.4269   0.08262   0.06599  -0.0576  1.0000  1.0000  -0.7036   0.0000   0.0000   0.0000   0.3747
   7.000   0.4316   0.08357   0.06697  -0.0578  1.0000  1.0000  -0.7089   0.0000   0.0000   0.0000   0.3737
   7.100   0.4364   0.08453   0.06796  -0.0581  1.0000  1.0000  -0.7150   0.0000   0.0000   0.0000   0.3728
   7.200   0.4410   0.08551   0.06896  -0.0584  1.0000  1.0000  -0.7210   0.0000   0.0000   0.0000   0.3719
   7.300   0.4457   0.08649   0.06997  -0.0587  1.0000  1.0000  -0.7269   0.0000   0.0000   0.0000   0.3710
   7.400   0.4503   0.08749   0.07099  -0.0590  1.0000  1.0000  -0.7326   0.0000   0.0000   0.0000   0.3702
   7.500   0.4549   0.08849   0.07203  -0.0592  1.0000  1.0000  -0.7386   0.0000   0.0000   0.0000   0.3694
   7.600   0.4594   0.08951   0.07307  -0.0596  1.0000  1.0000  -0.7455   0.0000   0.0000   0.0000   0.3687
   7.700   0.4639   0.09054   0.07413  -0.0599  1.0000  1.0000  -0.7522   0.0000   0.0000   0.0000   0.3680
   7.800   0.4684   0.09158   0.07520  -0.0602  1.0000  1.0000  -0.7588   0.0000   0.0000   0.0000   0.3673
   7.900   0.4728   0.09263   0.07629  -0.0605  1.0000  1.0000  -0.7652   0.0000   0.0000   0.0000   0.3666
   8.000   0.4772   0.09369   0.07738  -0.0608  1.0000  1.0000  -0.7723   0.0000   0.0000   0.0000   0.3660
   8.100   0.4816   0.09476   0.07849  -0.0611  1.0000  1.0000  -0.7799   0.0000   0.0000   0.0000   0.3654
   8.200   0.4859   0.09584   0.07960  -0.0615  1.0000  1.0000  -0.7875   0.0000   0.0000   0.0000   0.3649
   8.300   0.4901   0.09693   0.08073  -0.0618  1.0000  1.0000  -0.7949   0.0000   0.0000   0.0000   0.3644
   8.400   0.4944   0.09804   0.08188  -0.0622  1.0000  1.0000  -0.8021   0.0000   0.0000   0.0000   0.3639
   8.500   0.4986   0.09915   0.08303  -0.0625  1.0000  1.0000  -0.8100   0.0000   0.0000   0.0000   0.3634
   8.600   0.5028   0.10028   0.08420  -0.0629  1.0000  1.0000  -0.8186   0.0000   0.0000   0.0000   0.3630
   8.700   0.5069   0.10141   0.08537  -0.0632  1.0000  1.0000  -0.8271   0.0000   0.0000   0.0000   0.3626
   8.800   0.5110   0.10256   0.08656  -0.0636  1.0000  1.0000  -0.8354   0.0000   0.0000   0.0000   0.3622
   8.900   0.5150   0.10372   0.08776  -0.0640  1.0000  1.0000  -0.8436   0.0000   0.0000   0.0000   0.3618
   9.000   0.5191   0.10489   0.08898  -0.0644  1.0000  1.0000  -0.8515   0.0000   0.0000   0.0000   0.3615
   9.100   0.5230   0.10607   0.09020  -0.0648  1.0000  1.0000  -0.8606   0.0000   0.0000   0.0000   0.3612
   9.200   0.5270   0.10726   0.09144  -0.0652  1.0000  1.0000  -0.8702   0.0000   0.0000   0.0000   0.3609
   9.300   0.5309   0.10846   0.09279  -0.0656  1.0000  1.0000  -0.8796   0.0000   0.0000   0.0000   0.3606
   9.400   0.5348   0.10967   0.09405  -0.0660  1.0000  1.0000  -0.8888   0.0000   0.0000   0.0000   0.3604
   9.500   0.5386   0.11090   0.09532  -0.0664  1.0000  1.0000  -0.8978   0.0000   0.0000   0.0000   0.3601
   9.600   0.5424   0.11213   0.09660  -0.0668  1.0000  1.0000  -0.9066   0.0000   0.0000   0.0000   0.3599
   9.700   0.5462   0.11338   0.09789  -0.0673  1.0000  1.0000  -0.9153   0.0000   0.0000   0.0000   0.3598
   9.800   0.5506   0.11464   0.09921  -0.0679  0.9987  1.0000  -0.9244   0.0000   0.0000   0.0000   0.3599
   9.900   0.5669   0.11768   0.10233  -0.0711  0.9923  1.0000  -0.9521   0.0000   0.0000   0.0000   0.3618
  10.000   0.5783   0.11978   0.10453  -0.0734  0.9827  1.0000  -0.9719   0.0000   0.0000   0.0000   0.3633
  10.100   0.5856   0.12137   0.10620  -0.0748  0.9741  1.0000  -0.9862   0.0000   0.0000   0.0000   0.3640
  10.200   0.6056   0.12532   0.11025  -0.0786  0.9641  1.0000  -1.0187   0.0000   0.0000   0.0000   0.3660
  10.300   0.6036   0.12515   0.11014  -0.0781  0.9550  1.0000  -1.0194   0.0000   0.0000   0.0000   0.3654
  10.400   0.6213   0.12886   0.11395  -0.0814  0.9460  1.0000  -1.0484   0.0000   0.0000   0.0000   0.3669
  10.500   0.6200   0.12905   0.11418  -0.0809  0.9390  1.0000  -1.0500   0.0000   0.0000   0.0000   0.3664
  10.600   0.6322   0.13151   0.11674  -0.0830  0.9274  1.0000  -1.0736   0.0000   0.0000   0.0000   0.3671
  10.700   0.6392   0.13357   0.11886  -0.0842  0.9205  1.0000  -1.0903   0.0000   0.0000   0.0000   0.3674
  10.800   0.6427   0.13423   0.11959  -0.0845  0.9082  1.0000  -1.1012   0.0000   0.0000   0.0000   0.3671
  10.900   0.6618   0.13897   0.12442  -0.0879  0.9000  1.0000  -1.1369   0.0000   0.0000   0.0000   0.3684
  11.000   0.6536   0.13739   0.12288  -0.0860  0.8918  1.0000  -1.1286   0.0000   0.0000   0.0000   0.3671
  11.100   0.6666   0.14027   0.12586  -0.0882  0.8809  1.0000  -1.1542   0.0000   0.0000   0.0000   0.3676
  11.200   0.6754   0.14307   0.12872  -0.0896  0.8744  1.0000  -1.1725   0.0000   0.0000   0.0000   0.3680
  11.300   0.6716   0.14224   0.12794  -0.0885  0.8636  1.0000  -1.1709   0.0000   0.0000   0.0000   0.3670
  11.400   0.6998   0.14923   0.13504  -0.0933  0.8512  1.0000  -1.2195   0.0000   0.0000   0.0000   0.3686
  11.500   0.6871   0.14666   0.13249  -0.0907  0.8458  1.0000  -1.2030   0.0000   0.0000   0.0000   0.3671
  11.600   0.6903   0.14742   0.13332  -0.0909  0.8347  1.0000  -1.2118   0.0000   0.0000   0.0000   0.3667
  11.700   0.7162   0.15445   0.14046  -0.0953  0.8247  1.0000  -1.2551   0.0000   0.0000   0.0000   0.3680
  11.800   0.7037   0.15180   0.13782  -0.0928  0.8196  1.0000  -1.2383   0.0000   0.0000   0.0000   0.3667
  11.900   0.7068   0.15246   0.13855  -0.0929  0.8073  1.0000  -1.2471   0.0000   0.0000   0.0000   0.3662
  12.000   0.7280   0.15853   0.14485  -0.0962  0.7967  1.0000  -1.2903   0.0000   0.0000   0.0000   0.3669
  12.100   0.7175   0.15618   0.14251  -0.0942  0.7902  1.0000  -1.2759   0.0000   0.0000   0.0000   0.3658
  12.200   0.7230   0.15754   0.14394  -0.0947  0.7788  1.0000  -1.2906   0.0000   0.0000   0.0000   0.3655
  12.300   0.7465   0.16468   0.15119  -0.0983  0.7694  1.0000  -1.3360   0.0000   0.0000   0.0000   0.3662
  12.400   0.7348   0.16206   0.14857  -0.0963  0.7650  1.0000  -1.3187   0.0000   0.0000   0.0000   0.3653
  12.500   0.7349   0.16205   0.14861  -0.0959  0.7535  1.0000  -1.3228   0.0000   0.0000   0.0000   0.3647
  12.600   0.7598   0.16946   0.15614  -0.0994  0.7408  1.0000  -1.3696   0.0000   0.0000   0.0000   0.3650
  12.700   0.7487   0.16685   0.15353  -0.0975  0.7361  1.0000  -1.3525   0.0000   0.0000   0.0000   0.3643
  12.800   0.7485   0.16688   0.15360  -0.0971  0.7257  1.0000  -1.3552   0.0000   0.0000   0.0000   0.3638
  12.900   0.7703   0.17328   0.16013  -0.1000  0.7145  1.0000  -1.3949   0.0000   0.0000   0.0000   0.3638
  13.000   0.7694   0.17420   0.16106  -0.0999  0.7105  1.0000  -1.3937   0.0000   0.0000   0.0000   0.3637
  13.100   0.7617   0.17225   0.15911  -0.0986  0.7037  1.0000  -1.3819   0.0000   0.0000   0.0000   0.3631
  13.200   0.7703   0.17445   0.16139  -0.0993  0.6906  1.0000  -1.3987   0.0000   0.0000   0.0000   0.3626
  13.300   0.7853   0.18002   0.16703  -0.1012  0.6820  1.0000  -1.4240   0.0000   0.0000   0.0000   0.3625
  13.400   0.7763   0.17767   0.16468  -0.0999  0.6766  1.0000  -1.4090   0.0000   0.0000   0.0000   0.3621
  13.500   0.7781   0.17823   0.16528  -0.0999  0.6665  1.0000  -1.4126   0.0000   0.0000   0.0000   0.3616
  13.600   0.7965   0.18412   0.17129  -0.1019  0.6568  1.0000  -1.4426   0.0000   0.0000   0.0000   0.3613
  13.700   0.8008   0.18686   0.17405  -0.1026  0.6528  1.0000  -1.4471   0.0000   0.0000   0.0000   0.3613
  13.800   0.7922   0.18451   0.17169  -0.1015  0.6482  1.0000  -1.4318   0.0000   0.0000   0.0000   0.3611
  13.900   0.7923   0.18454   0.17175  -0.1013  0.6384  1.0000  -1.4315   0.0000   0.0000   0.0000   0.3607
  14.000   0.8202   0.19422   0.18156  -0.1040  0.6245  1.0000  -1.4750   0.0000   0.0000   0.0000   0.3598
  14.100   0.8107   0.19161   0.17894  -0.1031  0.6220  1.0000  -1.4571   0.0000   0.0000   0.0000   0.3599
  14.200   0.8048   0.18988   0.17720  -0.1024  0.6157  1.0000  -1.4469   0.0000   0.0000   0.0000   0.3598
  14.300   0.8085   0.19105   0.17842  -0.1026  0.6067  1.0000  -1.4558   0.0000   0.0000   0.0000   0.3593
  14.400   0.8225   0.19598   0.18344  -0.1039  0.5990  1.0000  -1.4843   0.0000   0.0000   0.0000   0.3587
  14.500   0.8342   0.20170   0.18921  -0.1053  0.5946  1.0000  -1.5056   0.0000   0.0000   0.0000   0.3586
  14.600   0.8262   0.19930   0.18679  -0.1046  0.5922  1.0000  -1.4896   0.0000   0.0000   0.0000   0.3588
  14.700   0.8215   0.19782   0.18530  -0.1042  0.5863  1.0000  -1.4807   0.0000   0.0000   0.0000   0.3588
  14.800   0.8254   0.19898   0.18651  -0.1044  0.5769  1.0000  -1.4891   0.0000   0.0000   0.0000   0.3584
  14.900   0.8510   0.20923   0.19687  -0.1064  0.5656  1.0000  -1.5385   0.0000   0.0000   0.0000   0.3570
  15.000   0.8430   0.20666   0.19428  -0.1059  0.5636  1.0000  -1.5216   0.0000   0.0000   0.0000   0.3574
  15.100   0.8373   0.20471   0.19232  -0.1056  0.5590  1.0000  -1.5096   0.0000   0.0000   0.0000   0.3576
  15.200   0.8381   0.20495   0.19258  -0.1057  0.5515  1.0000  -1.5105   0.0000   0.0000   0.0000   0.3574
  15.300   0.8450   0.20745   0.19513  -0.1062  0.5448  1.0000  -1.5226   0.0000   0.0000   0.0000   0.3569
  15.400   0.8602   0.21389   0.20167  -0.1074  0.5389  1.0000  -1.5496   0.0000   0.0000   0.0000   0.3561
  15.500   0.8685   0.21883   0.20663  -0.1083  0.5362  1.0000  -1.5609   0.0000   0.0000   0.0000   0.3559
  15.600   0.8621   0.21655   0.20433  -0.1082  0.5345  1.0000  -1.5460   0.0000   0.0000   0.0000   0.3564
  15.700   0.8574   0.21469   0.20246  -0.1081  0.5309  1.0000  -1.5343   0.0000   0.0000   0.0000   0.3568
  15.800   0.8570   0.21446   0.20224  -0.1082  0.5247  1.0000  -1.5313   0.0000   0.0000   0.0000   0.3568
  15.900   0.8626   0.21641   0.20423  -0.1086  0.5170  1.0000  -1.5402   0.0000   0.0000   0.0000   0.3563
  16.000   0.8878   0.22830   0.21635  -0.1100  0.5075  1.0000  -1.5851   0.0000   0.0000   0.0000   0.3544
  16.100   0.8811   0.22557   0.21360  -0.1099  0.5061  1.0000  -1.5686   0.0000   0.0000   0.0000   0.3550
  16.200   0.8757   0.22317   0.21118  -0.1099  0.5031  1.0000  -1.5547   0.0000   0.0000   0.0000   0.3556
  16.300   0.8742   0.22233   0.21034  -0.1101  0.4973  1.0000  -1.5485   0.0000   0.0000   0.0000   0.3558
  16.400   0.8778   0.22358   0.21162  -0.1105  0.4908  1.0000  -1.5520   0.0000   0.0000   0.0000   0.3555
  16.500   0.8850   0.22658   0.21467  -0.1109  0.4855  1.0000  -1.5618   0.0000   0.0000   0.0000   0.3549
  16.600   0.8976   0.23280   0.22097  -0.1117  0.4811  1.0000  -1.5803   0.0000   0.0000   0.0000   0.3540
  16.700   0.9081   0.23957   0.22777  -0.1126  0.4786  1.0000  -1.5925   0.0000   0.0000   0.0000   0.3535
  16.800   0.9033   0.23726   0.22543  -0.1128  0.4775  1.0000  -1.5781   0.0000   0.0000   0.0000   0.3542
  16.900   0.8993   0.23521   0.22336  -0.1131  0.4755  1.0000  -1.5654   0.0000   0.0000   0.0000   0.3548
  17.000   0.8976   0.23412   0.22227  -0.1135  0.4719  1.0000  -1.5567   0.0000   0.0000   0.0000   0.3553
  17.100   0.8987   0.23440   0.22256  -0.1140  0.4672  1.0000  -1.5535   0.0000   0.0000   0.0000   0.3554
  17.200   0.9026   0.23589   0.22408  -0.1144  0.4620  1.0000  -1.5555   0.0000   0.0000   0.0000   0.3552
  17.300   0.9107   0.23942   0.22766  -0.1147  0.4562  1.0000  -1.5657   0.0000   0.0000   0.0000   0.3544
  17.400   0.9299   0.25128   0.23961  -0.1154  0.4502  1.0000  -1.5938   0.0000   0.0000   0.0000   0.3525
  17.500   0.9246   0.24811   0.23641  -0.1158  0.4490  1.0000  -1.5776   0.0000   0.0000   0.0000   0.3534
  17.600   0.9204   0.24534   0.23362  -0.1162  0.4466  1.0000  -1.5635   0.0000   0.0000   0.0000   0.3542
  17.700   0.9191   0.24403   0.23230  -0.1167  0.4418  1.0000  -1.5548   0.0000   0.0000   0.0000   0.3547
  17.800   0.9216   0.24473   0.23302  -0.1171  0.4359  1.0000  -1.5537   0.0000   0.0000   0.0000   0.3546
  17.900   0.9277   0.24729   0.23561  -0.1175  0.4301  1.0000  -1.5659   0.0000   0.0000   0.0000   0.3540
  18.000   0.9378   0.25273   0.24113  -0.1178  0.4255  1.0000  -1.5900   0.0000   0.0000   0.0000   0.3529
  18.100   0.9534   0.26396   0.25241  -0.1183  0.4224  1.0000  -1.6242   0.0000   0.0000   0.0000   0.3514
  18.200   0.9495   0.26122   0.24966  -0.1189  0.4216  1.0000  -1.6118   0.0000   0.0000   0.0000   0.3523
  18.300   0.9464   0.25875   0.24716  -0.1196  0.4203  1.0000  -1.6009   0.0000   0.0000   0.0000   0.3532
  18.400   0.9444   0.25690   0.24529  -0.1203  0.4180  1.0000  -1.5930   0.0000   0.0000   0.0000   0.3539
  18.500   0.9445   0.25629   0.24469  -0.1209  0.4146  1.0000  -1.5901   0.0000   0.0000   0.0000   0.3544
  18.600   0.9466   0.25688   0.24529  -0.1215  0.4107  1.0000  -1.5923   0.0000   0.0000   0.0000   0.3545
  18.700   0.9501   0.25833   0.24675  -0.1221  0.4068  1.0000  -1.5983   0.0000   0.0000   0.0000   0.3544
  18.800   0.9551   0.26065   0.24911  -0.1225  0.4030  1.0000  -1.6081   0.0000   0.0000   0.0000   0.3540
  18.900   0.9621   0.26446   0.25297  -0.1228  0.3994  1.0000  -1.6228   0.0000   0.0000   0.0000   0.3533
  19.000   0.9735   0.27272   0.26131  -0.1230  0.3961  1.0000  -1.6480   0.0000   0.0000   0.0000   0.3520
  19.100   0.9785   0.27715   0.26572  -0.1236  0.3944  1.0000  -1.6551   0.0000   0.0000   0.0000   0.3518
  19.200   0.9753   0.27391   0.26246  -0.1244  0.3933  1.0000  -1.6427   0.0000   0.0000   0.0000   0.3528
  19.300   0.9732   0.27121   0.25974  -0.1253  0.3912  1.0000  -1.6326   0.0000   0.0000   0.0000   0.3537
  19.400   0.9731   0.26976   0.25828  -0.1262  0.3875  1.0000  -1.6278   0.0000   0.0000   0.0000   0.3543
  19.500   0.9753   0.26999   0.25852  -0.1268  0.3828  1.0000  -1.6293   0.0000   0.0000   0.0000   0.3545
  19.600   0.9797   0.27170   0.26026  -0.1272  0.3776  1.0000  -1.6371   0.0000   0.0000   0.0000   0.3541
  19.700   0.9873   0.27611   0.26472  -0.1272  0.3723  1.0000  -1.6545   0.0000   0.0000   0.0000   0.3531
  19.800   1.0027   0.29017   0.27895  -0.1268  0.3677  1.0000  -1.6906   0.0000   0.0000   0.0000   0.3508
  19.900   0.9996   0.28641   0.27516  -0.1278  0.3668  1.0000  -1.6767   0.0000   0.0000   0.0000   0.3519
  20.000   0.9977   0.28303   0.27175  -0.1290  0.3653  1.0000  -1.6653   0.0000   0.0000   0.0000   0.3529
  20.100   0.9972   0.28082   0.26952  -0.1300  0.3625  1.0000  -1.6575   0.0000   0.0000   0.0000   0.3537
  20.200   0.9986   0.28038   0.26909  -0.1308  0.3587  1.0000  -1.6552   0.0000   0.0000   0.0000   0.3541
  20.300   1.0015   0.28125   0.26998  -0.1315  0.3549  1.0000  -1.6572   0.0000   0.0000   0.0000   0.3542
  20.400   1.0054   0.28296   0.27171  -0.1320  0.3514  1.0000  -1.6619   0.0000   0.0000   0.0000   0.3540
  20.500   1.0104   0.28562   0.27440  -0.1324  0.3481  1.0000  -1.6698   0.0000   0.0000   0.0000   0.3536
  20.600   1.0169   0.29004   0.27887  -0.1325  0.3450  1.0000  -1.6818   0.0000   0.0000   0.0000   0.3528
  20.700   1.0262   0.29903   0.28794  -0.1324  0.3423  1.0000  -1.7005   0.0000   0.0000   0.0000   0.3514
  20.800   1.0308   0.30400   0.29290  -0.1328  0.3410  1.0000  -1.7046   0.0000   0.0000   0.0000   0.3512
  20.900   1.0295   0.30052   0.28939  -0.1341  0.3402  1.0000  -1.6929   0.0000   0.0000   0.0000   0.3522
  21.000   1.0287   0.29761   0.28646  -0.1353  0.3389  1.0000  -1.6824   0.0000   0.0000   0.0000   0.3532
  21.100   1.0289   0.29572   0.28456  -0.1365  0.3366  1.0000  -1.6743   0.0000   0.0000   0.0000   0.3540
  21.200   1.0303   0.29523   0.28407  -0.1374  0.3336  1.0000  -1.6700   0.0000   0.0000   0.0000   0.3545
  21.300   1.0328   0.29583   0.28468  -0.1382  0.3303  1.0000  -1.6691   0.0000   0.0000   0.0000   0.3546
  21.400   1.0362   0.29719   0.28606  -0.1388  0.3270  1.0000  -1.6708   0.0000   0.0000   0.0000   0.3546
  21.500   1.0403   0.29927   0.28816  -0.1393  0.3239  1.0000  -1.6750   0.0000   0.0000   0.0000   0.3543
  21.600   1.0454   0.30240   0.29133  -0.1396  0.3209  1.0000  -1.6822   0.0000   0.0000   0.0000   0.3538
  21.700   1.0520   0.30771   0.29670  -0.1396  0.3182  1.0000  -1.6935   0.0000   0.0000   0.0000   0.3529
  21.800   1.0619   0.31983   0.30891  -0.1391  0.3158  1.0000  -1.7131   0.0000   0.0000   0.0000   0.3512
  21.900   1.0625   0.31892   0.30795  -0.1402  0.3150  1.0000  -1.7049   0.0000   0.0000   0.0000   0.3519
  22.000   1.0615   0.31514   0.30414  -0.1416  0.3140  1.0000  -1.6920   0.0000   0.0000   0.0000   0.3530
  22.100   1.0610   0.31219   0.30117  -0.1430  0.3124  1.0000  -1.6806   0.0000   0.0000   0.0000   0.3540
  22.200   1.0617   0.31065   0.29961  -0.1442  0.3096  1.0000  -1.6725   0.0000   0.0000   0.0000   0.3547
  22.300   1.0636   0.31062   0.29960  -0.1451  0.3061  1.0000  -1.6688   0.0000   0.0000   0.0000   0.3551
  22.400   1.0667   0.31169   0.30069  -0.1458  0.3023  1.0000  -1.6690   0.0000   0.0000   0.0000   0.3551
  22.500   1.0709   0.31381   0.30283  -0.1462  0.2984  1.0000  -1.6733   0.0000   0.0000   0.0000   0.3548
  22.600   1.0768   0.31797   0.30703  -0.1462  0.2946  1.0000  -1.6838   0.0000   0.0000   0.0000   0.3539
  22.700   1.0878   0.33159   0.32077  -0.1451  0.2908  1.0000  -1.7100   0.0000   0.0000   0.0000   0.3516
  22.800   1.0889   0.33168   0.32081  -0.1461  0.2898  1.0000  -1.7023   0.0000   0.0000   0.0000   0.3521
  22.900   1.0880   0.32763   0.31672  -0.1477  0.2888  1.0000  -1.6900   0.0000   0.0000   0.0000   0.3533
  23.000   1.0877   0.32467   0.31375  -0.1492  0.2870  1.0000  -1.6827   0.0000   0.0000   0.0000   0.3543
  23.100   1.0886   0.32335   0.31242  -0.1504  0.2842  1.0000  -1.6806   0.0000   0.0000   0.0000   0.3550
  23.200   1.0907   0.32356   0.31265  -0.1513  0.2808  1.0000  -1.6841   0.0000   0.0000   0.0000   0.3554
  23.300   1.0937   0.32475   0.31385  -0.1520  0.2775  1.0000  -1.6918   0.0000   0.0000   0.0000   0.3554
  23.400   1.0974   0.32666   0.31578  -0.1526  0.2745  1.0000  -1.7026   0.0000   0.0000   0.0000   0.3552
  23.500   1.1017   0.32939   0.31862  -0.1529  0.2718  1.0000  -1.7171   0.0000   0.0000   0.0000   0.3548
  23.600   1.1069   0.33359   0.32287  -0.1531  0.2693  1.0000  -1.7352   0.0000   0.0000   0.0000   0.3541
  23.700   1.1138   0.34147   0.33081  -0.1527  0.2671  1.0000  -1.7605   0.0000   0.0000   0.0000   0.3529
  23.800   1.1199   0.35042   0.33977  -0.1526  0.2658  1.0000  -1.7802   0.0000   0.0000   0.0000   0.3519
  23.900   1.1194   0.34675   0.33608  -0.1542  0.2652  1.0000  -1.7703   0.0000   0.0000   0.0000   0.3530
  24.000   1.1193   0.34371   0.33302  -0.1557  0.2644  1.0000  -1.7616   0.0000   0.0000   0.0000   0.3541
  24.100   1.1197   0.34151   0.33081  -0.1572  0.2630  1.0000  -1.7549   0.0000   0.0000   0.0000   0.3550
  24.200   1.1209   0.34044   0.32974  -0.1585  0.2610  1.0000  -1.7514   0.0000   0.0000   0.0000   0.3557
  24.300   1.1227   0.34049   0.32980  -0.1596  0.2585  1.0000  -1.7518   0.0000   0.0000   0.0000   0.3561
  24.400   1.1252   0.34132   0.33064  -0.1604  0.2559  1.0000  -1.7552   0.0000   0.0000   0.0000   0.3563
  24.500   1.1282   0.34270   0.33204  -0.1612  0.2533  1.0000  -1.7611   0.0000   0.0000   0.0000   0.3563
  24.600   1.1316   0.34457   0.33394  -0.1618  0.2508  1.0000  -1.7693   0.0000   0.0000   0.0000   0.3562
  24.700   1.1355   0.34711   0.33651  -0.1622  0.2483  1.0000  -1.7801   0.0000   0.0000   0.0000   0.3559
  24.800   1.1400   0.35084   0.34027  -0.1624  0.2461  1.0000  -1.7946   0.0000   0.0000   0.0000   0.3553
  24.900   1.1457   0.35723   0.34672  -0.1622  0.2440  1.0000  -1.8147   0.0000   0.0000   0.0000   0.3543
  25.200   1.1535   0.36391   0.35339  -0.1646  0.2412  1.0000  -1.8229   0.0000   0.0000   0.0000   0.3547
  25.300   1.1540   0.36142   0.35089  -0.1662  0.2403  1.0000  -1.8140   0.0000   0.0000   0.0000   0.3556
  25.400   1.1549   0.35990   0.34937  -0.1677  0.2388  1.0000  -1.8075   0.0000   0.0000   0.0000   0.3564
  25.500   1.1565   0.35947   0.34894  -0.1689  0.2367  1.0000  -1.8044   0.0000   0.0000   0.0000   0.3570
  25.600   1.1586   0.35993   0.34940  -0.1699  0.2345  1.0000  -1.8044   0.0000   0.0000   0.0000   0.3573
  25.700   1.1612   0.36097   0.35047  -0.1708  0.2321  1.0000  -1.8069   0.0000   0.0000   0.0000   0.3575
  25.800   1.1640   0.36245   0.35197  -0.1716  0.2298  1.0000  -1.8114   0.0000   0.0000   0.0000   0.3575
  25.900   1.1672   0.36437   0.35391  -0.1722  0.2275  1.0000  -1.8180   0.0000   0.0000   0.0000   0.3574
  26.000   1.1708   0.36689   0.35645  -0.1727  0.2253  1.0000  -1.8269   0.0000   0.0000   0.0000   0.3571
  26.100   1.1750   0.37058   0.36018  -0.1729  0.2232  1.0000  -1.8398   0.0000   0.0000   0.0000   0.3566
  26.200   1.1804   0.37734   0.36700  -0.1726  0.2211  1.0000  -1.8595   0.0000   0.0000   0.0000   0.3555
  26.300   1.1871   0.39027   0.37995  -0.1717  0.2194  1.0000  -1.8854   0.0000   0.0000   0.0000   0.3540
  26.400   1.1869   0.38611   0.37577  -0.1735  0.2190  1.0000  -1.8720   0.0000   0.0000   0.0000   0.3551
  26.500   1.1871   0.38266   0.37231  -0.1753  0.2183  1.0000  -1.8598   0.0000   0.0000   0.0000   0.3561
  26.600   1.1877   0.38013   0.36976  -0.1770  0.2171  1.0000  -1.8492   0.0000   0.0000   0.0000   0.3571
  26.700   1.1888   0.37876   0.36839  -0.1785  0.2154  1.0000  -1.8419   0.0000   0.0000   0.0000   0.3578
  26.800   1.1906   0.37861   0.36826  -0.1797  0.2130  1.0000  -1.8386   0.0000   0.0000   0.0000   0.3583
  26.900   1.1929   0.37936   0.36908  -0.1807  0.2104  1.0000  -1.8387   0.0000   0.0000   0.0000   0.3586
  27.000   1.1956   0.38071   0.37045  -0.1815  0.2078  1.0000  -1.8420   0.0000   0.0000   0.0000   0.3586
  27.100   1.1987   0.38265   0.37242  -0.1821  0.2051  1.0000  -1.8482   0.0000   0.0000   0.0000   0.3584
  27.200   1.2023   0.38549   0.37529  -0.1825  0.2026  1.0000  -1.8583   0.0000   0.0000   0.0000   0.3580
  27.300   1.2067   0.39032   0.38017  -0.1824  0.2002  1.0000  -1.8744   0.0000   0.0000   0.0000   0.3572
  27.400   1.2129   0.40167   0.39161  -0.1813  0.1981  1.0000  -1.9022   0.0000   0.0000   0.0000   0.3556
  27.500   1.2155   0.40545   0.39535  -0.1820  0.1973  1.0000  -1.9039   0.0000   0.0000   0.0000   0.3555
  27.600   1.2158   0.40190   0.39178  -0.1838  0.1968  1.0000  -1.8899   0.0000   0.0000   0.0000   0.3566
  27.700   1.2164   0.39921   0.38908  -0.1856  0.1961  1.0000  -1.8776   0.0000   0.0000   0.0000   0.3575
  27.800   1.2175   0.39752   0.38739  -0.1872  0.1950  1.0000  -1.8674   0.0000   0.0000   0.0000   0.3583
  27.900   1.2190   0.39688   0.38675  -0.1886  0.1935  1.0000  -1.8602   0.0000   0.0000   0.0000   0.3590
  28.000   1.2209   0.39714   0.38703  -0.1898  0.1918  1.0000  -1.8560   0.0000   0.0000   0.0000   0.3594
  28.100   1.2231   0.39800   0.38790  -0.1909  0.1899  1.0000  -1.8541   0.0000   0.0000   0.0000   0.3596
  28.200   1.2255   0.39922   0.38913  -0.1918  0.1881  1.0000  -1.8538   0.0000   0.0000   0.0000   0.3598
  28.300   1.2280   0.40073   0.39067  -0.1927  0.1862  1.0000  -1.8549   0.0000   0.0000   0.0000   0.3598
  28.400   1.2307   0.40254   0.39250  -0.1934  0.1845  1.0000  -1.8575   0.0000   0.0000   0.0000   0.3598
  28.500   1.2336   0.40471   0.39470  -0.1940  0.1827  1.0000  -1.8618   0.0000   0.0000   0.0000   0.3597
  28.600   1.2367   0.40746   0.39748  -0.1945  0.1810  1.0000  -1.8682   0.0000   0.0000   0.0000   0.3594
  28.700   1.2402   0.41126   0.40132  -0.1947  0.1795  1.0000  -1.8776   0.0000   0.0000   0.0000   0.3589
  28.800   1.2442   0.41734   0.40745  -0.1946  0.1780  1.0000  -1.8915   0.0000   0.0000   0.0000   0.3581
  28.900   1.2493   0.42929   0.41947  -0.1937  0.1768  1.0000  -1.9131   0.0000   0.0000   0.0000   0.3567
  29.000   1.2507   0.42922   0.41934  -0.1950  0.1764  1.0000  -1.9050   0.0000   0.0000   0.0000   0.3572
  29.100   1.2514   0.42635   0.41646  -0.1968  0.1760  1.0000  -1.8911   0.0000   0.0000   0.0000   0.3581
  29.200   1.2524   0.42408   0.41419  -0.1985  0.1755  1.0000  -1.8783   0.0000   0.0000   0.0000   0.3589
  29.300   1.2536   0.42249   0.41260  -0.2001  0.1747  1.0000  -1.8668   0.0000   0.0000   0.0000   0.3597
  29.400   1.2550   0.42167   0.41178  -0.2016  0.1737  1.0000  -1.8572   0.0000   0.0000   0.0000   0.3603
  29.500   1.2567   0.42160   0.41172  -0.2030  0.1723  1.0000  -1.8499   0.0000   0.0000   0.0000   0.3608
  29.600   1.2587   0.42216   0.41229  -0.2042  0.1708  1.0000  -1.8448   0.0000   0.0000   0.0000   0.3611
  29.700   1.2608   0.42314   0.41329  -0.2052  0.1692  1.0000  -1.8416   0.0000   0.0000   0.0000   0.3614
  29.800   1.2630   0.42443   0.41461  -0.2062  0.1676  1.0000  -1.8398   0.0000   0.0000   0.0000   0.3615
  29.900   1.2653   0.42596   0.41616  -0.2071  0.1660  1.0000  -1.8394   0.0000   0.0000   0.0000   0.3616


