xflr5 v6.61

 Calculated polar for: NACA 4412

 1 1 Reynolds number fixed          Mach number fixed         

 xtrf =   1.000 (top)        1.000 (bottom)
 Mach =   0.000     Re =     0.002 e 6     Ncrit =   9.000

  alpha     CL        CD       CDp       Cm    Top Xtr Bot Xtr   Cpmin    Chinge    XCp    
 ------- -------- --------- --------- -------- ------- ------- -------- --------- ---------
   0.000  -0.0025   0.08908   0.03855  -0.0385  1.0000  1.0000  -0.8285   0.0000   0.0000   0.0000  -15.1144
   0.500   0.0306   0.08992   0.03797  -0.0381  1.0000  1.0000  -0.7263   0.0000   0.0000   0.0000   1.5006
   1.000   0.0637   0.09100   0.03757  -0.0377  1.0000  1.0000  -0.6360   0.0000   0.0000   0.0000   0.8410
   1.500   0.0962   0.09231   0.03779  -0.0372  1.0000  1.0000  -0.5485   0.0000   0.0000   0.0000   0.6338
   2.000   0.1283   0.09384   0.03839  -0.0368  1.0000  1.0000  -0.5182   0.0000   0.0000   0.0000   0.5325
   2.500   0.1597   0.09559   0.03937  -0.0364  1.0000  1.0000  -0.5372   0.0000   0.0000   0.0000   0.4727
   3.000   0.1905   0.09755   0.04071  -0.0361  1.0000  1.0000  -0.5563   0.0000   0.0000   0.0000   0.4335
   3.500   0.2206   0.09972   0.04235  -0.0359  1.0000  1.0000  -0.5758   0.0000   0.0000   0.0000   0.4059
   4.000   0.2501   0.10209   0.04432  -0.0358  1.0000  1.0000  -0.5965   0.0000   0.0000   0.0000   0.3856
   4.500   0.2789   0.10467   0.04662  -0.0357  1.0000  1.0000  -0.6172   0.0000   0.0000   0.0000   0.3702
   5.000   0.3070   0.10746   0.04925  -0.0358  1.0000  1.0000  -0.6393   0.0000   0.0000   0.0000   0.3583
   5.500   0.3343   0.11045   0.05219  -0.0360  1.0000  1.0000  -0.6628   0.0000   0.0000   0.0000   0.3488
   6.000   0.3610   0.11365   0.05544  -0.0364  1.0000  1.0000  -0.6875   0.0000   0.0000   0.0000   0.3413
   6.500   0.3868   0.11705   0.05913  -0.0369  1.0000  1.0000  -0.7139   0.0000   0.0000   0.0000   0.3353
   7.000   0.4120   0.12065   0.06293  -0.0375  1.0000  1.0000  -0.7425   0.0000   0.0000   0.0000   0.3305
   7.500   0.4364   0.12445   0.06701  -0.0383  1.0000  1.0000  -0.7741   0.0000   0.0000   0.0000   0.3267
   8.000   0.4601   0.12846   0.07139  -0.0392  1.0000  1.0000  -0.8092   0.0000   0.0000   0.0000   0.3236
   8.500   0.4831   0.13269   0.07605  -0.0403  1.0000  1.0000  -0.8482   0.0000   0.0000   0.0000   0.3213
   9.000   0.5054   0.13712   0.08098  -0.0416  1.0000  1.0000  -0.8916   0.0000   0.0000   0.0000   0.3196
   9.500   0.5270   0.14176   0.08649  -0.0431  1.0000  1.0000  -0.9389   0.0000   0.0000   0.0000   0.3184
  10.000   0.5479   0.14660   0.09191  -0.0448  1.0000  1.0000  -0.9883   0.0000   0.0000   0.0000   0.3177
  10.500   0.5680   0.15165   0.09759  -0.0466  1.0000  1.0000  -1.0400   0.0000   0.0000   0.0000   0.3175
  11.000   0.5875   0.15690   0.10351  -0.0487  1.0000  1.0000  -1.0937   0.0000   0.0000   0.0000   0.3176
  11.500   0.6064   0.16235   0.10965  -0.0509  1.0000  1.0000  -1.1482   0.0000   0.0000   0.0000   0.3181
  12.000   0.6246   0.16800   0.11601  -0.0534  1.0000  1.0000  -1.1982   0.0000   0.0000   0.0000   0.3189
  12.500   0.6424   0.17385   0.12258  -0.0560  1.0000  1.0000  -1.2550   0.0000   0.0000   0.0000   0.3200
  13.000   0.6596   0.17989   0.12973  -0.0589  1.0000  1.0000  -1.3075   0.0000   0.0000   0.0000   0.3214
  13.500   0.6764   0.18611   0.13666  -0.0619  1.0000  1.0000  -1.3542   0.0000   0.0000   0.0000   0.3229
  14.000   0.6929   0.19251   0.14375  -0.0652  1.0000  1.0000  -1.3958   0.0000   0.0000   0.0000   0.3247
  14.500   0.7091   0.19907   0.15099  -0.0686  1.0000  1.0000  -1.4455   0.0000   0.0000   0.0000   0.3266
  15.000   0.7251   0.20578   0.15837  -0.0721  1.0000  1.0000  -1.4892   0.0000   0.0000   0.0000   0.3287
  15.500   0.7409   0.21265   0.16588  -0.0759  1.0000  1.0000  -1.5270   0.0000   0.0000   0.0000   0.3307
  16.000   0.7567   0.21968   0.17352  -0.0797  1.0000  1.0000  -1.5590   0.0000   0.0000   0.0000   0.3329
  16.500   0.7725   0.22688   0.18167  -0.0836  1.0000  1.0000  -1.5853   0.0000   0.0000   0.0000   0.3350
  17.000   0.7882   0.23421   0.18957  -0.0877  1.0000  1.0000  -1.6064   0.0000   0.0000   0.0000   0.3371
  17.500   0.8040   0.24167   0.19756  -0.0918  1.0000  1.0000  -1.6394   0.0000   0.0000   0.0000   0.3392
  18.000   0.8198   0.24924   0.20565  -0.0960  1.0000  1.0000  -1.6688   0.0000   0.0000   0.0000   0.3412
  18.500   0.8357   0.25693   0.21383  -0.1002  1.0000  1.0000  -1.6937   0.0000   0.0000   0.0000   0.3432
  19.000   0.8517   0.26473   0.22212  -0.1045  1.0000  1.0000  -1.7144   0.0000   0.0000   0.0000   0.3450
  19.500   0.8677   0.27265   0.23049  -0.1088  1.0000  1.0000  -1.7311   0.0000   0.0000   0.0000   0.3468
  20.000   0.8837   0.28068   0.23897  -0.1132  1.0000  1.0000  -1.7441   0.0000   0.0000   0.0000   0.3485


