xflr5 v6.61

 Calculated polar for: NACA 4412

 1 1 Reynolds number fixed          Mach number fixed         

 xtrf =   1.000 (top)        1.000 (bottom)
 Mach =   0.000     Re =     0.130 e 6     Ncrit =   9.000

  alpha     CL        CD       CDp       Cm    Top Xtr Bot Xtr   Cpmin    Chinge    XCp    
 ------- -------- --------- --------- -------- ------- ------- -------- --------- ---------
   0.000   0.4718   0.01376   0.00733  -0.1083  0.8017  1.0000  -0.7569   0.0000   0.0000   0.0000   0.4786
   0.500   0.5254   0.01378   0.00710  -0.1073  0.7775  1.0000  -0.7999   0.0000   0.0000   0.0000   0.4526
   1.000   0.5794   0.01390   0.00698  -0.1064  0.7534  1.0000  -0.8446   0.0000   0.0000   0.0000   0.4314
   1.500   0.6338   0.01410   0.00697  -0.1056  0.7304  1.0000  -0.8927   0.0000   0.0000   0.0000   0.4139
   2.000   0.6895   0.01435   0.00700  -0.1051  0.7089  1.0000  -0.9440   0.0000   0.0000   0.0000   0.3991
   2.500   0.7428   0.01468   0.00721  -0.1043  0.6869  1.0000  -0.9968   0.0000   0.0000   0.0000   0.3866
   3.000   0.7937   0.01518   0.00764  -0.1033  0.6652  1.0000  -1.0516   0.0000   0.0000   0.0000   0.3758
   3.500   0.8467   0.01572   0.00808  -0.1026  0.6462  1.0000  -1.1140   0.0000   0.0000   0.0000   0.3663
   4.000   0.9010   0.01618   0.00842  -0.1021  0.6273  1.0000  -1.1867   0.0000   0.0000   0.0000   0.3578
   4.500   0.9501   0.01682   0.00918  -0.1009  0.6075  1.0000  -1.2803   0.0000   0.0000   0.0000   0.3502
   5.000   1.0025   0.01746   0.00979  -0.1001  0.5893  1.0000  -1.4290   0.0000   0.0000   0.0000   0.3433
   5.500   1.0545   0.01798   0.01029  -0.0992  0.5697  1.0000  -1.6105   0.0000   0.0000   0.0000   0.3369
   6.000   1.1022   0.01863   0.01112  -0.0977  0.5485  1.0000  -1.8079   0.0000   0.0000   0.0000   0.3309
   6.500   1.1511   0.01919   0.01171  -0.0962  0.5259  1.0000  -2.0383   0.0000   0.0000   0.0000   0.3252
   7.000   1.1988   0.01957   0.01209  -0.0944  0.4999  1.0000  -2.2887   0.0000   0.0000   0.0000   0.3196
   7.500   1.2436   0.01992   0.01247  -0.0920  0.4716  1.0000  -2.5411   0.0000   0.0000   0.0000   0.3142
   8.000   1.2849   0.02031   0.01299  -0.0892  0.4413  1.0000  -2.8209   0.0000   0.0000   0.0000   0.3089
   8.500   1.3216   0.02073   0.01353  -0.0856  0.4071  1.0000  -3.1103   0.0000   0.0000   0.0000   0.3035
   9.000   1.3526   0.02133   0.01408  -0.0812  0.3673  1.0000  -3.3899   0.0000   0.0000   0.0000   0.2980
   9.500   1.3710   0.02240   0.01513  -0.0750  0.3147  1.0000  -3.6314   0.0000   0.0000   0.0000   0.2919
  10.000   1.3721   0.02439   0.01689  -0.0667  0.2485  1.0000  -3.8131   0.0000   0.0000   0.0000   0.2850
  10.500   1.3589   0.02798   0.02009  -0.0582  0.1807  1.0000  -3.9329   0.0000   0.0000   0.0000   0.2783
  11.000   1.3434   0.03264   0.02438  -0.0511  0.1369  1.0000  -4.0314   0.0000   0.0000   0.0000   0.2727
  11.500   1.3386   0.03718   0.02888  -0.0463  0.1101  1.0000  -4.1573   0.0000   0.0000   0.0000   0.2684
  12.000   1.3374   0.04186   0.03354  -0.0423  0.0941  1.0000  -4.2873   0.0000   0.0000   0.0000   0.2646
  12.500   1.3428   0.04634   0.03803  -0.0389  0.0828  1.0000  -4.4650   0.0000   0.0000   0.0000   0.2610
  13.000   1.3561   0.05040   0.04201  -0.0359  0.0733  1.0000  -4.6939   0.0000   0.0000   0.0000   0.2576
  13.500   1.3664   0.05475   0.04666  -0.0337  0.0661  1.0000  -4.9025   0.0000   0.0000   0.0000   0.2549
  14.000   1.3888   0.05880   0.05069  -0.0312  0.0590  1.0000  -5.1678   0.0000   0.0000   0.0000   0.2519
  14.500   1.3955   0.06383   0.05617  -0.0293  0.0557  1.0000  -5.3393   0.0000   0.0000   0.0000   0.2494
  15.000   1.3993   0.06949   0.06220  -0.0278  0.0526  1.0000  -5.4949   0.0000   0.0000   0.0000   0.2473
  15.500   1.4005   0.07556   0.06854  -0.0267  0.0500  1.0000  -5.6435   0.0000   0.0000   0.0000   0.2456
  16.000   1.3997   0.08295   0.07621  -0.0258  0.0479  1.0000  -5.7541   0.0000   0.0000   0.0000   0.2440
  17.000   1.3256   0.10658   0.10086  -0.0309  0.0471  1.0000  -5.5232   0.0000   0.0000   0.0000   0.2468
  18.000   1.1895   0.14694   0.14242  -0.0555  0.0493  1.0000  -4.7416   0.0000   0.0000   0.0000   0.2684
  18.500   0.9969   0.23100   0.22651  -0.1036  0.0923  1.0000  -2.0488   0.0000   0.0000   0.0000   0.3293
  19.000   1.0202   0.23778   0.23335  -0.1038  0.0889  1.0000  -2.1735   0.0000   0.0000   0.0000   0.3260
  19.500   1.0226   0.24767   0.24320  -0.1103  0.0853  1.0000  -2.0720   0.0000   0.0000   0.0000   0.3314
  20.000   1.0344   0.25308   0.24862  -0.1152  0.0754  1.0000  -2.0816   0.0000   0.0000   0.0000   0.3338


