xflr5 v6.61

 Calculated polar for: NACA 4412

 1 1 Reynolds number fixed          Mach number fixed         

 xtrf =   1.000 (top)        1.000 (bottom)
 Mach =   0.000     Re =     0.080 e 6     Ncrit =   9.000

  alpha     CL        CD       CDp       Cm    Top Xtr Bot Xtr   Cpmin    Chinge    XCp    
 ------- -------- --------- --------- -------- ------- ------- -------- --------- ---------
   0.500   0.4374   0.02326   0.01524  -0.1015  0.8099  1.0000  -0.7227   0.0000   0.0000   0.0000   0.4808
   1.000   0.5229   0.02260   0.01431  -0.1053  0.7980  1.0000  -0.7869   0.0000   0.0000   0.0000   0.4495
   1.500   0.5722   0.02309   0.01465  -0.1040  0.7744  1.0000  -0.8291   0.0000   0.0000   0.0000   0.4292
   2.000   0.6220   0.02378   0.01524  -0.1029  0.7527  1.0000  -0.8733   0.0000   0.0000   0.0000   0.4124
   2.500   0.6877   0.02373   0.01511  -0.1036  0.7369  1.0000  -0.9338   0.0000   0.0000   0.0000   0.3970
   3.000   0.7425   0.02415   0.01546  -0.1030  0.7176  1.0000  -0.9896   0.0000   0.0000   0.0000   0.3846
   3.500   0.7874   0.02522   0.01653  -0.1013  0.6966  1.0000  -1.0418   0.0000   0.0000   0.0000   0.3740
   4.000   0.8586   0.02492   0.01615  -0.1024  0.6829  1.0000  -1.1264   0.0000   0.0000   0.0000   0.3641
   4.500   0.8983   0.02620   0.01759  -0.1001  0.6607  1.0000  -1.1947   0.0000   0.0000   0.0000   0.3557
   5.000   0.9423   0.02745   0.01893  -0.0983  0.6406  1.0000  -1.3033   0.0000   0.0000   0.0000   0.3480
   5.500   1.0145   0.02705   0.01848  -0.0992  0.6250  1.0000  -1.4999   0.0000   0.0000   0.0000   0.3409
   6.000   1.0506   0.02843   0.02007  -0.0962  0.6016  1.0000  -1.6598   0.0000   0.0000   0.0000   0.3341
   6.500   1.0941   0.02952   0.02140  -0.0940  0.5788  1.0000  -1.8482   0.0000   0.0000   0.0000   0.3278
   7.000   1.1475   0.02981   0.02180  -0.0925  0.5556  1.0000  -2.0987   0.0000   0.0000   0.0000   0.3219
   7.500   1.2024   0.02962   0.02168  -0.0907  0.5284  1.0000  -2.3701   0.0000   0.0000   0.0000   0.3160
   8.000   1.2516   0.02934   0.02157  -0.0881  0.4965  1.0000  -2.6396   0.0000   0.0000   0.0000   0.3102
   8.500   1.2991   0.02889   0.02117  -0.0851  0.4611  1.0000  -2.9618   0.0000   0.0000   0.0000   0.3046
   9.000   1.3464   0.02831   0.02047  -0.0821  0.4219  1.0000  -3.2956   0.0000   0.0000   0.0000   0.2991
   9.500   1.3637   0.02871   0.02112  -0.0752  0.3761  1.0000  -3.5303   0.0000   0.0000   0.0000   0.2925
  10.000   1.3703   0.02954   0.02186  -0.0670  0.3201  1.0000  -3.7315   0.0000   0.0000   0.0000   0.2854
  10.500   1.3542   0.03216   0.02422  -0.0569  0.2560  1.0000  -3.8409   0.0000   0.0000   0.0000   0.2777
  11.000   1.3336   0.03660   0.02810  -0.0487  0.1996  1.0000  -3.9183   0.0000   0.0000   0.0000   0.2713
  11.500   1.3254   0.04149   0.03266  -0.0430  0.1595  1.0000  -4.0162   0.0000   0.0000   0.0000   0.2663
  12.000   1.3353   0.04597   0.03698  -0.0389  0.1318  1.0000  -4.1568   0.0000   0.0000   0.0000   0.2622
  12.500   1.3475   0.05033   0.04135  -0.0356  0.1124  1.0000  -4.3396   0.0000   0.0000   0.0000   0.2587
  13.000   1.3795   0.05466   0.04571  -0.0332  0.0985  1.0000  -4.6013   0.0000   0.0000   0.0000   0.2555
  13.500   1.4277   0.06002   0.05108  -0.0322  0.0870  1.0000  -4.9133   0.0000   0.0000   0.0000   0.2533
  14.000   1.4084   0.06595   0.05770  -0.0283  0.0831  1.0000  -4.9581   0.0000   0.0000   0.0000   0.2498
  14.500   1.3937   0.07239   0.06458  -0.0260  0.0781  1.0000  -5.0334   0.0000   0.0000   0.0000   0.2475
  15.000   1.4006   0.07925   0.07158  -0.0247  0.0734  1.0000  -5.1932   0.0000   0.0000   0.0000   0.2456
  15.500   1.3656   0.08982   0.08266  -0.0244  0.0724  1.0000  -5.1173   0.0000   0.0000   0.0000   0.2449
  16.000   1.3147   0.10177   0.09515  -0.0268  0.0724  1.0000  -4.9592   0.0000   0.0000   0.0000   0.2464
  16.500   0.9810   0.19044   0.18459  -0.0819  0.1135  1.0000  -2.3150   0.0000   0.0000   0.0000   0.3117
  17.000   1.0154   0.19112   0.18543  -0.0779  0.1023  1.0000  -2.6316   0.0000   0.0000   0.0000   0.3036
  18.000   0.9739   0.22980   0.22397  -0.1029  0.1439  1.0000  -1.8770   0.0000   0.0000   0.0000   0.3323
  19.000   0.9948   0.24576   0.24001  -0.1111  0.1310  1.0000  -1.8570   0.0000   0.0000   0.0000   0.3366
  19.500   1.0129   0.25279   0.24709  -0.1134  0.1232  1.0000  -1.9060   0.0000   0.0000   0.0000   0.3358
  20.000   1.0470   0.27019   0.26459  -0.1106  0.1194  1.0000  -2.0516   0.0000   0.0000   0.0000   0.3287


