xflr5 v6.61

 Calculated polar for: NACA 4412

 1 1 Reynolds number fixed          Mach number fixed         

 xtrf =   1.000 (top)        1.000 (bottom)
 Mach =   0.000     Re =     0.060 e 6     Ncrit =   9.000

  alpha     CL        CD       CDp       Cm    Top Xtr Bot Xtr   Cpmin    Chinge    XCp    
 ------- -------- --------- --------- -------- ------- ------- -------- --------- ---------
   0.500   0.3252   0.03115   0.02213  -0.0911  0.8415  1.0000  -0.6331   0.0000   0.0000   0.0000   0.5294
   1.000   0.4151   0.03164   0.02229  -0.0968  0.8250  1.0000  -0.6954   0.0000   0.0000   0.0000   0.4817
   2.000   0.5003   0.03467   0.02500  -0.0949  0.7785  1.0000  -0.7616   0.0000   0.0000   0.0000   0.4369
   2.500   0.5495   0.03627   0.02649  -0.0949  0.7588  1.0000  -0.8024   0.0000   0.0000   0.0000   0.4192
   3.000   0.6294   0.03638   0.02654  -0.0978  0.7438  1.0000  -0.8741   0.0000   0.0000   0.0000   0.4014
   3.500   0.6508   0.03922   0.02940  -0.0947  0.7204  1.0000  -0.8990   0.0000   0.0000   0.0000   0.3909
   4.500   0.7711   0.04100   0.03125  -0.0953  0.6862  1.0000  -1.0371   0.0000   0.0000   0.0000   0.3680
   5.000   0.7779   0.04525   0.03555  -0.0915  0.6616  1.0000  -1.0623   0.0000   0.0000   0.0000   0.3614
   6.000   0.9079   0.04572   0.03638  -0.0911  0.6270  1.0000  -1.3397   0.0000   0.0000   0.0000   0.3430
   6.500   0.9068   0.05081   0.04158  -0.0869  0.6003  1.0000  -1.4008   0.0000   0.0000   0.0000   0.3379
   7.000   0.9160   0.05543   0.04633  -0.0838  0.5742  1.0000  -1.4848   0.0000   0.0000   0.0000   0.3329
   8.000   1.1506   0.04432   0.03593  -0.0844  0.5364  1.0000  -2.2932   0.0000   0.0000   0.0000   0.3136
   8.500   1.1951   0.04386   0.03571  -0.0804  0.5040  1.0000  -2.5438   0.0000   0.0000   0.0000   0.3067
   9.000   1.2544   0.04147   0.03364  -0.0768  0.4650  1.0000  -2.8970   0.0000   0.0000   0.0000   0.2999
   9.500   1.3328   0.03716   0.02932  -0.0745  0.4155  1.0000  -3.3466   0.0000   0.0000   0.0000   0.2936
  10.000   1.3576   0.03617   0.02830  -0.0674  0.3591  1.0000  -3.6110   0.0000   0.0000   0.0000   0.2864
  10.500   1.3536   0.03705   0.02892  -0.0576  0.2961  1.0000  -3.7667   0.0000   0.0000   0.0000   0.2784
  11.000   1.3404   0.04055   0.03187  -0.0489  0.2361  1.0000  -3.8613   0.0000   0.0000   0.0000   0.2714
  11.500   1.3342   0.04509   0.03604  -0.0426  0.1910  1.0000  -3.9601   0.0000   0.0000   0.0000   0.2660
  12.000   1.3584   0.04960   0.04010  -0.0392  0.1557  1.0000  -4.1363   0.0000   0.0000   0.0000   0.2621
  12.500   1.3768   0.05462   0.04526  -0.0359  0.1345  1.0000  -4.3185   0.0000   0.0000   0.0000   0.2585
  13.000   1.3991   0.05994   0.05066  -0.0335  0.1182  1.0000  -4.5375   0.0000   0.0000   0.0000   0.2556
  13.500   1.3882   0.06679   0.05819  -0.0296  0.1120  1.0000  -4.5879   0.0000   0.0000   0.0000   0.2521
  14.000   1.3805   0.07415   0.06605  -0.0270  0.1067  1.0000  -4.6540   0.0000   0.0000   0.0000   0.2495
  14.500   1.3751   0.08356   0.07573  -0.0255  0.1025  1.0000  -4.7113   0.0000   0.0000   0.0000   0.2477
  15.000   1.3192   0.09494   0.08766  -0.0257  0.1026  1.0000  -4.5554   0.0000   0.0000   0.0000   0.2478
  15.500   1.0016   0.16513   0.15839  -0.0684  0.1344  1.0000  -2.5682   0.0000   0.0000   0.0000   0.2976
  16.000   0.9871   0.18096   0.17420  -0.0754  0.1354  1.0000  -2.3855   0.0000   0.0000   0.0000   0.3053
  16.500   0.9510   0.21516   0.20840  -0.0935  0.2182  1.0000  -1.8178   0.0000   0.0000   0.0000   0.3279
  17.000   0.9406   0.21906   0.21226  -0.0995  0.2058  1.0000  -1.7411   0.0000   0.0000   0.0000   0.3345
  17.500   0.9931   0.23682   0.23023  -0.0965  0.1979  1.0000  -1.9415   0.0000   0.0000   0.0000   0.3252
  18.000   0.9621   0.23495   0.22820  -0.1065  0.1894  1.0000  -1.7547   0.0000   0.0000   0.0000   0.3376
  18.500   0.9974   0.24852   0.24188  -0.1046  0.1759  1.0000  -1.8970   0.0000   0.0000   0.0000   0.3311
  19.000   0.9897   0.24889   0.24219  -0.1127  0.1641  1.0000  -1.7959   0.0000   0.0000   0.0000   0.3390
  20.000   1.0161   0.26353   0.25692  -0.1205  0.1498  1.0000  -1.7933   0.0000   0.0000   0.0000   0.3417


