xflr5 v6.61

 Calculated polar for: RG 14 AIRFOIL

 1 1 Reynolds number fixed          Mach number fixed         

 xtrf =   1.000 (top)        1.000 (bottom)
 Mach =   0.000     Re =     0.200 e 6     Ncrit =   9.000

  alpha     CL        CD       CDp       Cm    Top Xtr Bot Xtr   Cpmin    Chinge    XCp    
 ------- -------- --------- --------- -------- ------- ------- -------- --------- ---------
   0.000   0.2307   0.00942   0.00430  -0.0497  0.9402  1.0000  -0.4506   0.0000   0.0000   0.0000   0.4649
   0.500   0.3111   0.00903   0.00384  -0.0545  0.9145  1.0000  -0.5267   0.0000   0.0000   0.0000   0.4242
   1.000   0.3762   0.00871   0.00347  -0.0559  0.8771  1.0000  -0.6056   0.0000   0.0000   0.0000   0.3974
   1.500   0.4289   0.00857   0.00326  -0.0547  0.8320  1.0000  -0.6911   0.0000   0.0000   0.0000   0.3760
   2.000   0.4751   0.00864   0.00314  -0.0523  0.7813  1.0000  -0.7849   0.0000   0.0000   0.0000   0.3581
   2.500   0.5173   0.00883   0.00318  -0.0492  0.7272  1.0000  -0.8856   0.0000   0.0000   0.0000   0.3429
   3.000   0.5598   0.00911   0.00329  -0.0462  0.6693  1.0000  -1.0324   0.0000   0.0000   0.0000   0.3300
   3.500   0.6024   0.00952   0.00347  -0.0433  0.6077  1.0000  -1.1894   0.0000   0.0000   0.0000   0.3190
   4.000   0.6451   0.01007   0.00376  -0.0405  0.5410  1.0000  -1.4298   0.0000   0.0000   0.0000   0.3095
   4.500   0.6890   0.01062   0.00416  -0.0381  0.4707  1.0000  -1.8001   0.0000   0.0000   0.0000   0.3017
   5.000   0.7315   0.01146   0.00497  -0.0356  0.3916  1.0000  -2.1651   0.0000   0.0000   0.0000   0.2946
   5.500   0.7744   0.01238   0.00565  -0.0335  0.3062  1.0000  -2.5678   0.0000   0.0000   0.0000   0.2887
   6.000   0.8154   0.01366   0.00654  -0.0313  0.2128  1.0000  -3.0159   0.0000   0.0000   0.0000   0.2834
   6.500   0.8557   0.01529   0.00785  -0.0291  0.1353  1.0000  -3.6200   0.0000   0.0000   0.0000   0.2785
   7.000   0.8959   0.01715   0.00965  -0.0267  0.0891  1.0000  -4.2177   0.0000   0.0000   0.0000   0.2738
   7.500   0.9317   0.01962   0.01202  -0.0240  0.0526  1.0000  -4.7665   0.0000   0.0000   0.0000   0.2692
   8.000   0.9698   0.02156   0.01389  -0.0219  0.0217  1.0000  -5.2498   0.0000   0.0000   0.0000   0.2655
   8.500   0.9994   0.02565   0.01836  -0.0180  0.0159  1.0000  -5.4719   0.0000   0.0000   0.0000   0.2604
   9.000   1.0295   0.03063   0.02408  -0.0143  0.0131  1.0000  -5.5501   0.0000   0.0000   0.0000   0.2558
   9.500   1.0499   0.03669   0.03087  -0.0102  0.0126  1.0000  -5.6496   0.0000   0.0000   0.0000   0.2511
  10.000   1.0507   0.04385   0.03882  -0.0051  0.0127  1.0000  -5.6168   0.0000   0.0000   0.0000   0.2457
  10.500   1.0275   0.05086   0.04643   0.0009  0.0130  1.0000  -5.4997   0.0000   0.0000   0.0000   0.2395
  11.000   0.9918   0.05875   0.05479   0.0030  0.0133  1.0000  -5.3425   0.0000   0.0000   0.0000   0.2367
  11.500   0.9519   0.06952   0.06595  -0.0017  0.0135  1.0000  -5.1311   0.0000   0.0000   0.0000   0.2408
  12.000   0.9092   0.08487   0.08159  -0.0130  0.0138  1.0000  -4.8063   0.0000   0.0000   0.0000   0.2528
  12.500   0.8618   0.10782   0.10467  -0.0286  0.0146  1.0000  -4.1618   0.0000   0.0000   0.0000   0.2715
  13.000   0.8343   0.12666   0.12331  -0.0381  0.0155  1.0000  -3.6277   0.0000   0.0000   0.0000   0.2841
  13.500   0.8195   0.14120   0.13779  -0.0452  0.0163  1.0000  -3.2156   0.0000   0.0000   0.0000   0.2934
  14.000   0.8130   0.15328   0.14982  -0.0510  0.0172  1.0000  -2.9133   0.0000   0.0000   0.0000   0.3006
  14.500   0.8078   0.17008   0.16659  -0.0567  0.0319  1.0000  -2.2359   0.0000   0.0000   0.0000   0.3081
  15.000   0.8121   0.18235   0.17885  -0.0598  0.0336  1.0000  -2.1252   0.0000   0.0000   0.0000   0.3111
  15.500   0.8207   0.19204   0.18853  -0.0642  0.0335  1.0000  -2.0480   0.0000   0.0000   0.0000   0.3152
  16.000   0.8303   0.20112   0.19761  -0.0687  0.0331  1.0000  -1.9826   0.0000   0.0000   0.0000   0.3193
  16.500   0.8375   0.20857   0.20504  -0.0753  0.0303  1.0000  -1.8619   0.0000   0.0000   0.0000   0.3259
  17.000   0.8463   0.21825   0.21482  -0.0799  0.0278  1.0000  -1.7756   0.0000   0.0000   0.0000   0.3299
  17.500   0.8561   0.22781   0.22439  -0.0839  0.0257  1.0000  -1.7474   0.0000   0.0000   0.0000   0.3329
  18.000   0.8660   0.23734   0.23393  -0.0876  0.0240  1.0000  -1.7447   0.0000   0.0000   0.0000   0.3354
  18.500   0.8759   0.24683   0.24344  -0.0910  0.0225  1.0000  -1.7641   0.0000   0.0000   0.0000   0.3375
  19.000   0.8859   0.25629   0.25294  -0.0940  0.0213  1.0000  -1.8110   0.0000   0.0000   0.0000   0.3390
  19.500   0.8965   0.26603   0.26272  -0.0963  0.0202  1.0000  -1.9078   0.0000   0.0000   0.0000   0.3395
  20.000   0.8993   0.28373   0.28040  -0.0981  0.0187  1.0000  -1.8915   0.0000   0.0000   0.0000   0.3407


