xflr5 v6.61

 Calculated polar for: RG 14 AIRFOIL

 1 1 Reynolds number fixed          Mach number fixed         

 xtrf =   1.000 (top)        1.000 (bottom)
 Mach =   0.000     Re =     0.080 e 6     Ncrit =   9.000

  alpha     CL        CD       CDp       Cm    Top Xtr Bot Xtr   Cpmin    Chinge    XCp    
 ------- -------- --------- --------- -------- ------- ------- -------- --------- ---------
   0.000  -0.0081   0.01476   0.00664  -0.0085  1.0000  1.0000  -0.4506   0.0000   0.0000   0.0000  -0.8022
   0.500   0.0586   0.01580   0.00753  -0.0133  0.9889  1.0000  -0.3583   0.0000   0.0000   0.0000   0.4745
   1.000   0.1635   0.01678   0.00846  -0.0245  0.9582  1.0000  -0.4399   0.0000   0.0000   0.0000   0.3978
   1.500   0.2732   0.01726   0.00896  -0.0355  0.9277  1.0000  -0.5409   0.0000   0.0000   0.0000   0.3780
   2.000   0.3818   0.01709   0.00903  -0.0451  0.8958  1.0000  -0.6690   0.0000   0.0000   0.0000   0.3662
   2.500   0.4633   0.01673   0.00880  -0.0487  0.8545  1.0000  -0.7973   0.0000   0.0000   0.0000   0.3528
   3.000   0.5335   0.01631   0.00852  -0.0493  0.8064  1.0000  -0.9601   0.0000   0.0000   0.0000   0.3399
   3.500   0.5943   0.01596   0.00824  -0.0477  0.7510  1.0000  -1.1454   0.0000   0.0000   0.0000   0.3274
   4.000   0.6472   0.01597   0.00818  -0.0447  0.6881  1.0000  -1.3816   0.0000   0.0000   0.0000   0.3159
   4.500   0.6906   0.01630   0.00849  -0.0407  0.6141  1.0000  -1.7434   0.0000   0.0000   0.0000   0.3054
   5.000   0.7348   0.01691   0.00934  -0.0369  0.5334  1.0000  -2.1166   0.0000   0.0000   0.0000   0.2963
   5.500   0.7746   0.01786   0.00999  -0.0328  0.4395  1.0000  -2.4918   0.0000   0.0000   0.0000   0.2880
   6.000   0.8108   0.01927   0.01111  -0.0288  0.3361  1.0000  -2.8699   0.0000   0.0000   0.0000   0.2807
   6.500   0.8448   0.02143   0.01290  -0.0249  0.2327  1.0000  -3.2392   0.0000   0.0000   0.0000   0.2741
   7.000   0.8805   0.02442   0.01560  -0.0217  0.1592  1.0000  -3.7250   0.0000   0.0000   0.0000   0.2688
   7.500   0.9211   0.02843   0.01972  -0.0188  0.1172  1.0000  -4.1505   0.0000   0.0000   0.0000   0.2641
   8.500   0.9837   0.04001   0.03215  -0.0117  0.0629  1.0000  -4.4878   0.0000   0.0000   0.0000   0.2547
   9.000   1.0018   0.04753   0.04042  -0.0078  0.0589  1.0000  -4.5296   0.0000   0.0000   0.0000   0.2501
   9.500   1.0004   0.05325   0.04693  -0.0039  0.0451  1.0000  -4.6049   0.0000   0.0000   0.0000   0.2457
  10.000   1.0055   0.05740   0.05128  -0.0008  0.0373  1.0000  -4.8257   0.0000   0.0000   0.0000   0.2421
  10.500   0.9741   0.06497   0.05939   0.0031  0.0376  1.0000  -4.6832   0.0000   0.0000   0.0000   0.2376
  11.000   0.8482   0.09369   0.08866  -0.0132  0.0699  1.0000  -3.4774   0.0000   0.0000   0.0000   0.2564
  11.500   0.8205   0.11044   0.10532  -0.0223  0.0744  1.0000  -3.1452   0.0000   0.0000   0.0000   0.2678
  12.000   0.7910   0.13796   0.13277  -0.0388  0.1423  1.0000  -2.2940   0.0000   0.0000   0.0000   0.2902
  12.500   0.8081   0.15695   0.15175  -0.0383  0.1369  1.0000  -2.3149   0.0000   0.0000   0.0000   0.2882
  13.000   0.8046   0.16550   0.16024  -0.0438  0.1362  1.0000  -2.2055   0.0000   0.0000   0.0000   0.2948
  13.500   0.7809   0.16617   0.16078  -0.0534  0.1292  1.0000  -2.0074   0.0000   0.0000   0.0000   0.3082
  14.000   0.7836   0.17217   0.16675  -0.0575  0.1190  1.0000  -1.9499   0.0000   0.0000   0.0000   0.3126
  14.500   0.8074   0.18418   0.17876  -0.0563  0.1025  1.0000  -2.0290   0.0000   0.0000   0.0000   0.3085
  15.000   0.8012   0.18680   0.18131  -0.0633  0.0898  1.0000  -1.9072   0.0000   0.0000   0.0000   0.3171
  15.500   0.8253   0.19621   0.19078  -0.0629  0.0809  1.0000  -1.9986   0.0000   0.0000   0.0000   0.3137
  16.000   0.8441   0.21610   0.21066  -0.0631  0.0771  1.0000  -2.0098   0.0000   0.0000   0.0000   0.3118
  16.500   0.8497   0.22354   0.21808  -0.0681  0.0765  1.0000  -1.9257   0.0000   0.0000   0.0000   0.3167
  17.000   0.8448   0.22638   0.22085  -0.0751  0.0747  1.0000  -1.7875   0.0000   0.0000   0.0000   0.3248
  17.500   0.8465   0.23248   0.22712  -0.0813  0.0694  1.0000  -1.6527   0.0000   0.0000   0.0000   0.3313
  18.000   0.8554   0.24160   0.23625  -0.0850  0.0644  1.0000  -1.6218   0.0000   0.0000   0.0000   0.3340
  18.500   0.8657   0.25104   0.24573  -0.0878  0.0602  1.0000  -1.6281   0.0000   0.0000   0.0000   0.3355
  19.000   0.8790   0.26153   0.25628  -0.0893  0.0567  1.0000  -1.6895   0.0000   0.0000   0.0000   0.3349
  19.500   0.9033   0.28644   0.28123  -0.0882  0.0534  1.0000  -1.7931   0.0000   0.0000   0.0000   0.3306
  20.000   0.9070   0.29510   0.28992  -0.0922  0.0531  1.0000  -1.7381   0.0000   0.0000   0.0000   0.3339


