xflr5 v6.61

 Calculated polar for: RG 14 AIRFOIL

 1 1 Reynolds number fixed          Mach number fixed         

 xtrf =   1.000 (top)        1.000 (bottom)
 Mach =   0.000     Re =     0.030 e 6     Ncrit =   9.000

  alpha     CL        CD       CDp       Cm    Top Xtr Bot Xtr   Cpmin    Chinge    XCp    
 ------- -------- --------- --------- -------- ------- ------- -------- --------- ---------
   0.000   0.0101   0.02141   0.00783  -0.0106  1.0000  1.0000  -0.4054   0.0000   0.0000   0.0000   1.2945
   0.500   0.0434   0.02198   0.00820  -0.0086  1.0000  1.0000  -0.3534   0.0000   0.0000   0.0000   0.4458
   1.000   0.0767   0.02275   0.00885  -0.0071  1.0000  1.0000  -0.3869   0.0000   0.0000   0.0000   0.3398
   1.500   0.1091   0.02376   0.00980  -0.0060  1.0000  1.0000  -0.4221   0.0000   0.0000   0.0000   0.3020
   2.000   0.1405   0.02504   0.01098  -0.0054  1.0000  1.0000  -0.4614   0.0000   0.0000   0.0000   0.2846
   2.500   0.1703   0.02665   0.01262  -0.0052  1.0000  1.0000  -0.5008   0.0000   0.0000   0.0000   0.2766
   3.000   0.1985   0.02863   0.01469  -0.0055  1.0000  1.0000  -0.5445   0.0000   0.0000   0.0000   0.2735
   3.500   0.2248   0.03101   0.01733  -0.0063  1.0000  1.0000  -0.5882   0.0000   0.0000   0.0000   0.2736
   4.000   0.3309   0.03584   0.02252  -0.0224  0.9521  1.0000  -0.7173   0.0000   0.0000   0.0000   0.3136
   4.500   0.4487   0.03987   0.02714  -0.0372  0.8689  1.0000  -0.9319   0.0000   0.0000   0.0000   0.3288
   5.000   0.5701   0.04256   0.03066  -0.0473  0.7786  1.0000  -1.1930   0.0000   0.0000   0.0000   0.3289
   5.500   0.6662   0.04336   0.03231  -0.0483  0.6822  1.0000  -1.6939   0.0000   0.0000   0.0000   0.3184
   6.000   0.7498   0.04270   0.03313  -0.0425  0.5745  1.0000  -2.1985   0.0000   0.0000   0.0000   0.3024
   6.500   0.8354   0.04048   0.03097  -0.0314  0.4412  1.0000  -2.7790   0.0000   0.0000   0.0000   0.2830
   7.000   0.8589   0.04512   0.03598  -0.0258  0.3622  1.0000  -2.9583   0.0000   0.0000   0.0000   0.2750
   7.500   0.8932   0.04971   0.04049  -0.0199  0.2908  1.0000  -3.1910   0.0000   0.0000   0.0000   0.2668
   8.000   0.9158   0.05758   0.04867  -0.0165  0.2541  1.0000  -3.3390   0.0000   0.0000   0.0000   0.2621
   8.500   0.8914   0.06740   0.05905  -0.0155  0.2425  1.0000  -3.2102   0.0000   0.0000   0.0000   0.2613
   9.000   0.8545   0.07910   0.07085  -0.0175  0.2417  1.0000  -2.9993   0.0000   0.0000   0.0000   0.2641
   9.500   0.8197   0.09206   0.08367  -0.0227  0.2446  1.0000  -2.7716   0.0000   0.0000   0.0000   0.2709
  10.000   0.7956   0.10496   0.09641  -0.0292  0.2455  1.0000  -2.5793   0.0000   0.0000   0.0000   0.2796
  10.500   0.7963   0.11829   0.10973  -0.0330  0.2499  1.0000  -2.5039   0.0000   0.0000   0.0000   0.2840
  11.000   0.7284   0.14630   0.13734  -0.0644  0.4897  1.0000  -1.8658   0.0000   0.0000   0.0000   0.3306
  12.000   0.7117   0.15131   0.14230  -0.0626  0.4260  1.0000  -1.7636   0.0000   0.0000   0.0000   0.3291
  12.500   0.7597   0.16788   0.15913  -0.0639  0.3959  1.0000  -1.8522   0.0000   0.0000   0.0000   0.3251
  13.000   0.7450   0.17148   0.16260  -0.0654  0.3845  1.0000  -1.7768   0.0000   0.0000   0.0000   0.3283
  13.500   0.7834   0.18867   0.17989  -0.0653  0.3409  1.0000  -1.8465   0.0000   0.0000   0.0000   0.3236
  14.000   0.7605   0.18163   0.17273  -0.0665  0.3143  1.0000  -1.7687   0.0000   0.0000   0.0000   0.3270
  14.500   0.8156   0.21028   0.20153  -0.0674  0.2955  1.0000  -1.8894   0.0000   0.0000   0.0000   0.3220
  15.000   0.7827   0.19810   0.18918  -0.0707  0.2829  1.0000  -1.7678   0.0000   0.0000   0.0000   0.3289
  15.500   0.8001   0.20691   0.19804  -0.0722  0.2633  1.0000  -1.7965   0.0000   0.0000   0.0000   0.3283
  16.000   0.8483   0.23785   0.22911  -0.0732  0.2515  1.0000  -1.8839   0.0000   0.0000   0.0000   0.3242
  16.500   0.8186   0.22489   0.21599  -0.0776  0.2436  1.0000  -1.7585   0.0000   0.0000   0.0000   0.3317
  17.000   0.8264   0.23118   0.22230  -0.0802  0.2264  1.0000  -1.7332   0.0000   0.0000   0.0000   0.3334
  17.500   0.8889   0.27262   0.26423  -0.0792  0.2106  1.0000  -1.8021   0.0000   0.0000   0.0000   0.3255
  18.000   0.8625   0.26141   0.25290  -0.0838  0.2082  1.0000  -1.6799   0.0000   0.0000   0.0000   0.3326
  18.500   0.8524   0.25962   0.25106  -0.0883  0.1971  1.0000  -1.5907   0.0000   0.0000   0.0000   0.3382
  19.000   0.8621   0.26898   0.26048  -0.0904  0.1843  1.0000  -1.5718   0.0000   0.0000   0.0000   0.3389
  19.500   0.9196   0.31037   0.30204  -0.0896  0.1720  1.0000  -1.6985   0.0000   0.0000   0.0000   0.3313
  20.000   0.8940   0.30189   0.29350  -0.0936  0.1704  1.0000  -1.5763   0.0000   0.0000   0.0000   0.3377


