xflr5 v6.61

 Calculated polar for: RG 14 AIRFOIL

 1 1 Reynolds number fixed          Mach number fixed         

 xtrf =   1.000 (top)        1.000 (bottom)
 Mach =   0.000     Re =     0.021 e 6     Ncrit =   9.000

  alpha     CL        CD       CDp       Cm    Top Xtr Bot Xtr   Cpmin    Chinge    XCp    
 ------- -------- --------- --------- -------- ------- ------- -------- --------- ---------
   0.000   0.0160   0.02514   0.00862  -0.0115  1.0000  1.0000  -0.3977   0.0000   0.0000   0.0000   0.9715
   0.100   0.0226   0.02523   0.00866  -0.0111  1.0000  1.0000  -0.3802   0.0000   0.0000   0.0000   0.7396
   0.200   0.0292   0.02532   0.00870  -0.0107  1.0000  1.0000  -0.3628   0.0000   0.0000   0.0000   0.6130
   0.300   0.0359   0.02543   0.00876  -0.0102  1.0000  1.0000  -0.3455   0.0000   0.0000   0.0000   0.5335
   0.400   0.0425   0.02553   0.00883  -0.0098  1.0000  1.0000  -0.3512   0.0000   0.0000   0.0000   0.4791
   0.500   0.0491   0.02565   0.00890  -0.0095  1.0000  1.0000  -0.3575   0.0000   0.0000   0.0000   0.4398
   0.600   0.0558   0.02577   0.00899  -0.0091  1.0000  1.0000  -0.3637   0.0000   0.0000   0.0000   0.4100
   0.700   0.0624   0.02591   0.00909  -0.0087  1.0000  1.0000  -0.3699   0.0000   0.0000   0.0000   0.3869
   0.800   0.0690   0.02604   0.00921  -0.0084  1.0000  1.0000  -0.3766   0.0000   0.0000   0.0000   0.3684
   0.900   0.0757   0.02619   0.00933  -0.0080  1.0000  1.0000  -0.3840   0.0000   0.0000   0.0000   0.3534
   1.000   0.0822   0.02635   0.00946  -0.0077  1.0000  1.0000  -0.3913   0.0000   0.0000   0.0000   0.3410
   1.100   0.0888   0.02651   0.00961  -0.0074  1.0000  1.0000  -0.3986   0.0000   0.0000   0.0000   0.3306
   1.200   0.0953   0.02669   0.00977  -0.0071  1.0000  1.0000  -0.4059   0.0000   0.0000   0.0000   0.3218
   1.300   0.1019   0.02687   0.00994  -0.0069  1.0000  1.0000  -0.4130   0.0000   0.0000   0.0000   0.3143
   1.400   0.1083   0.02706   0.01012  -0.0066  1.0000  1.0000  -0.4201   0.0000   0.0000   0.0000   0.3078
   1.500   0.1148   0.02726   0.01030  -0.0064  1.0000  1.0000  -0.4272   0.0000   0.0000   0.0000   0.3022
   1.600   0.1212   0.02747   0.01040  -0.0061  1.0000  1.0000  -0.4343   0.0000   0.0000   0.0000   0.2972
   1.700   0.1276   0.02769   0.01061  -0.0059  1.0000  1.0000  -0.4427   0.0000   0.0000   0.0000   0.2930
   1.800   0.1338   0.02792   0.01084  -0.0057  1.0000  1.0000  -0.4511   0.0000   0.0000   0.0000   0.2893
   1.900   0.1401   0.02817   0.01108  -0.0055  1.0000  1.0000  -0.4593   0.0000   0.0000   0.0000   0.2860
   2.000   0.1463   0.02842   0.01133  -0.0054  1.0000  1.0000  -0.4674   0.0000   0.0000   0.0000   0.2831
   2.100   0.1524   0.02869   0.01160  -0.0052  1.0000  1.0000  -0.4755   0.0000   0.0000   0.0000   0.2806
   2.200   0.1585   0.02897   0.01189  -0.0051  1.0000  1.0000  -0.4834   0.0000   0.0000   0.0000   0.2784
   2.300   0.1645   0.02926   0.01219  -0.0050  1.0000  1.0000  -0.4912   0.0000   0.0000   0.0000   0.2765
   2.400   0.1704   0.02956   0.01250  -0.0049  1.0000  1.0000  -0.4989   0.0000   0.0000   0.0000   0.2748
   2.500   0.1763   0.02988   0.01283  -0.0048  1.0000  1.0000  -0.5082   0.0000   0.0000   0.0000   0.2734
   2.600   0.1821   0.03021   0.01318  -0.0047  1.0000  1.0000  -0.5175   0.0000   0.0000   0.0000   0.2721
   2.700   0.1879   0.03056   0.01354  -0.0047  1.0000  1.0000  -0.5267   0.0000   0.0000   0.0000   0.2710
   2.800   0.1936   0.03092   0.01392  -0.0047  1.0000  1.0000  -0.5358   0.0000   0.0000   0.0000   0.2701
   2.900   0.1992   0.03129   0.01432  -0.0047  1.0000  1.0000  -0.5447   0.0000   0.0000   0.0000   0.2693
   3.000   0.2047   0.03168   0.01473  -0.0047  1.0000  1.0000  -0.5535   0.0000   0.0000   0.0000   0.2687
   3.100   0.2101   0.03208   0.01516  -0.0047  1.0000  1.0000  -0.5621   0.0000   0.0000   0.0000   0.2682
   3.200   0.2155   0.03250   0.01560  -0.0047  1.0000  1.0000  -0.5705   0.0000   0.0000   0.0000   0.2678
   3.300   0.2208   0.03294   0.01606  -0.0048  1.0000  1.0000  -0.5787   0.0000   0.0000   0.0000   0.2676
   3.400   0.2260   0.03340   0.01673  -0.0049  1.0000  1.0000  -0.5887   0.0000   0.0000   0.0000   0.2674
   3.500   0.2312   0.03386   0.01722  -0.0050  1.0000  1.0000  -0.5990   0.0000   0.0000   0.0000   0.2673
   3.600   0.2363   0.03435   0.01773  -0.0052  1.0000  1.0000  -0.6090   0.0000   0.0000   0.0000   0.2674
   3.700   0.2413   0.03485   0.01827  -0.0053  1.0000  1.0000  -0.6188   0.0000   0.0000   0.0000   0.2675
   3.800   0.2462   0.03537   0.01882  -0.0055  1.0000  1.0000  -0.6284   0.0000   0.0000   0.0000   0.2677
   3.900   0.2510   0.03591   0.01939  -0.0057  1.0000  1.0000  -0.6378   0.0000   0.0000   0.0000   0.2680
   4.000   0.2557   0.03647   0.01998  -0.0059  1.0000  1.0000  -0.6468   0.0000   0.0000   0.0000   0.2683
   4.100   0.2604   0.03705   0.02059  -0.0061  1.0000  1.0000  -0.6557   0.0000   0.0000   0.0000   0.2687
   4.200   0.2649   0.03764   0.02122  -0.0064  1.0000  1.0000  -0.6643   0.0000   0.0000   0.0000   0.2692
   4.300   0.2694   0.03826   0.02188  -0.0066  1.0000  1.0000  -0.6726   0.0000   0.0000   0.0000   0.2697
   4.400   0.2739   0.03890   0.02255  -0.0069  1.0000  1.0000  -0.6807   0.0000   0.0000   0.0000   0.2703
   4.500   0.2783   0.03956   0.02325  -0.0072  1.0000  1.0000  -0.6888   0.0000   0.0000   0.0000   0.2710
   4.600   0.2825   0.04023   0.02397  -0.0076  1.0000  1.0000  -0.6997   0.0000   0.0000   0.0000   0.2717
   4.700   0.2868   0.04093   0.02471  -0.0079  1.0000  1.0000  -0.7103   0.0000   0.0000   0.0000   0.2724
   4.800   0.2909   0.04165   0.02547  -0.0083  1.0000  1.0000  -0.7207   0.0000   0.0000   0.0000   0.2732
   4.900   0.2950   0.04238   0.02625  -0.0087  1.0000  1.0000  -0.7308   0.0000   0.0000   0.0000   0.2740
   5.000   0.2991   0.04313   0.02706  -0.0091  1.0000  1.0000  -0.7406   0.0000   0.0000   0.0000   0.2749
   5.100   0.3030   0.04391   0.02788  -0.0095  1.0000  1.0000  -0.7502   0.0000   0.0000   0.0000   0.2758
   5.200   0.3069   0.04470   0.02872  -0.0099  1.0000  1.0000  -0.7629   0.0000   0.0000   0.0000   0.2767
   5.300   0.3108   0.04551   0.02958  -0.0104  1.0000  1.0000  -0.7753   0.0000   0.0000   0.0000   0.2777
   5.400   0.3184   0.04652   0.03066  -0.0116  0.9976  1.0000  -0.7928   0.0000   0.0000   0.0000   0.2808
   5.500   0.3621   0.04931   0.03368  -0.0202  0.9715  1.0000  -0.8629   0.0000   0.0000   0.0000   0.3002
   5.600   0.3908   0.05132   0.03589  -0.0255  0.9512  1.0000  -0.9115   0.0000   0.0000   0.0000   0.3097
   5.700   0.4220   0.05334   0.03812  -0.0308  0.9251  1.0000  -0.9646   0.0000   0.0000   0.0000   0.3176
   5.800   0.4555   0.05532   0.04034  -0.0360  0.8946  1.0000  -1.0224   0.0000   0.0000   0.0000   0.3236
   5.900   0.4597   0.05603   0.04114  -0.0362  0.8796  1.0000  -1.0344   0.0000   0.0000   0.0000   0.3233
   6.000   0.4906   0.05819   0.04352  -0.0407  0.8583  1.0000  -1.0879   0.0000   0.0000   0.0000   0.3276
   6.100   0.4907   0.05893   0.04432  -0.0403  0.8483  1.0000  -1.0922   0.0000   0.0000   0.0000   0.3268
   6.200   0.5250   0.06095   0.04661  -0.0445  0.8182  1.0000  -1.1838   0.0000   0.0000   0.0000   0.3294
   6.300   0.5281   0.06169   0.04743  -0.0442  0.8022  1.0000  -1.2121   0.0000   0.0000   0.0000   0.3283
   6.400   0.5574   0.06335   0.04933  -0.0469  0.7718  1.0000  -1.3322   0.0000   0.0000   0.0000   0.3288
   6.500   0.5593   0.06438   0.05043  -0.0468  0.7617  1.0000  -1.3532   0.0000   0.0000   0.0000   0.3283
   6.600   0.5964   0.06654   0.05291  -0.0501  0.7337  1.0000  -1.5010   0.0000   0.0000   0.0000   0.3288
   6.700   0.5898   0.06737   0.05373  -0.0491  0.7264  1.0000  -1.4915   0.0000   0.0000   0.0000   0.3279
   6.900   0.6205   0.06952   0.05621  -0.0495  0.6767  1.0000  -1.6418   0.0000   0.0000   0.0000   0.3244
   7.000   0.6246   0.07064   0.05741  -0.0493  0.6633  1.0000  -1.6705   0.0000   0.0000   0.0000   0.3235
   7.500   0.6752   0.07718   0.06534  -0.0484  0.5786  1.0000  -1.9258   0.0000   0.0000   0.0000   0.3162
   7.600   0.6731   0.07842   0.06660  -0.0480  0.5695  1.0000  -1.9261   0.0000   0.0000   0.0000   0.3158
   7.800   0.7106   0.08218   0.07076  -0.0481  0.5376  1.0000  -2.0770   0.0000   0.0000   0.0000   0.3122
   7.900   0.7045   0.08388   0.07242  -0.0483  0.5360  1.0000  -2.0548   0.0000   0.0000   0.0000   0.3129
   8.000   0.6990   0.08552   0.07404  -0.0485  0.5340  1.0000  -2.0350   0.0000   0.0000   0.0000   0.3136
   8.100   0.6939   0.08711   0.07559  -0.0486  0.5315  1.0000  -2.0174   0.0000   0.0000   0.0000   0.3142
   8.200   0.6893   0.08861   0.07708  -0.0487  0.5283  1.0000  -2.0021   0.0000   0.0000   0.0000   0.3147
   8.300   0.6859   0.09002   0.07848  -0.0486  0.5233  1.0000  -1.9924   0.0000   0.0000   0.0000   0.3149
   8.400   0.7151   0.09059   0.07932  -0.0458  0.4804  1.0000  -2.1314   0.0000   0.0000   0.0000   0.3082
   8.500   0.7108   0.09227   0.08098  -0.0461  0.4779  1.0000  -2.1144   0.0000   0.0000   0.0000   0.3089
   8.600   0.7079   0.09409   0.08279  -0.0466  0.4768  1.0000  -2.0999   0.0000   0.0000   0.0000   0.3097
   8.700   0.7055   0.09598   0.08467  -0.0471  0.4765  1.0000  -2.0867   0.0000   0.0000   0.0000   0.3106
   8.800   0.7036   0.09791   0.08659  -0.0477  0.4766  1.0000  -2.0745   0.0000   0.0000   0.0000   0.3115
   8.900   0.7023   0.09988   0.08856  -0.0483  0.4773  1.0000  -2.0633   0.0000   0.0000   0.0000   0.3124
   9.000   0.7015   0.10192   0.09060  -0.0489  0.4784  1.0000  -2.0536   0.0000   0.0000   0.0000   0.3133
   9.100   0.7017   0.10406   0.09276  -0.0497  0.4801  1.0000  -2.0460   0.0000   0.0000   0.0000   0.3143
   9.200   0.7033   0.10639   0.09511  -0.0505  0.4824  1.0000  -2.0418   0.0000   0.0000   0.0000   0.3153
   9.300   0.7074   0.10908   0.09784  -0.0516  0.4852  1.0000  -2.0440   0.0000   0.0000   0.0000   0.3163
   9.400   0.7137   0.11210   0.10092  -0.0527  0.4877  1.0000  -2.0517   0.0000   0.0000   0.0000   0.3171
   9.500   0.7172   0.11468   0.10353  -0.0535  0.4887  1.0000  -2.0526   0.0000   0.0000   0.0000   0.3179
   9.600   0.7183   0.11688   0.10575  -0.0541  0.4891  1.0000  -2.0479   0.0000   0.0000   0.0000   0.3186
   9.700   0.7182   0.11884   0.10771  -0.0547  0.4891  1.0000  -2.0401   0.0000   0.0000   0.0000   0.3193
   9.800   0.7175   0.12067   0.10955  -0.0552  0.4890  1.0000  -2.0312   0.0000   0.0000   0.0000   0.3200
   9.900   0.7170   0.12251   0.11139  -0.0557  0.4889  1.0000  -2.0225   0.0000   0.0000   0.0000   0.3206
  10.000   0.7177   0.12455   0.11344  -0.0562  0.4890  1.0000  -2.0165   0.0000   0.0000   0.0000   0.3213
  10.100   0.7269   0.12828   0.11724  -0.0575  0.4905  1.0000  -2.0280   0.0000   0.0000   0.0000   0.3219
  10.200   0.5894   0.11971   0.10785  -0.0638  0.7910  1.0000  -1.5774   0.0000   0.0000   0.0000   0.3496
  10.300   0.6055   0.12455   0.11280  -0.0666  0.7857  1.0000  -1.6083   0.0000   0.0000   0.0000   0.3513
  10.400   0.6216   0.13053   0.11884  -0.0695  0.7823  1.0000  -1.6377   0.0000   0.0000   0.0000   0.3531
  10.500   0.6130   0.12902   0.11732  -0.0679  0.7804  1.0000  -1.6212   0.0000   0.0000   0.0000   0.3520
  10.600   0.6022   0.12661   0.11489  -0.0658  0.7742  1.0000  -1.6014   0.0000   0.0000   0.0000   0.3503
  10.700   0.6015   0.12650   0.11481  -0.0652  0.7616  1.0000  -1.6013   0.0000   0.0000   0.0000   0.3494
  10.800   0.6363   0.13591   0.12439  -0.0698  0.7358  1.0000  -1.6689   0.0000   0.0000   0.0000   0.3508
  10.900   0.6247   0.13318   0.12163  -0.0677  0.7303  1.0000  -1.6472   0.0000   0.0000   0.0000   0.3494
  11.000   0.6271   0.13302   0.12153  -0.0670  0.7078  1.0000  -1.6548   0.0000   0.0000   0.0000   0.3479
  11.100   0.6726   0.14711   0.13582  -0.0732  0.6910  1.0000  -1.7339   0.0000   0.0000   0.0000   0.3499
  11.200   0.6630   0.14512   0.13380  -0.0717  0.6894  1.0000  -1.7142   0.0000   0.0000   0.0000   0.3492
  11.300   0.6510   0.14214   0.13077  -0.0698  0.6854  1.0000  -1.6914   0.0000   0.0000   0.0000   0.3482
  11.400   0.6439   0.14034   0.12897  -0.0685  0.6765  1.0000  -1.6775   0.0000   0.0000   0.0000   0.3472
  11.500   0.6460   0.14118   0.12984  -0.0685  0.6673  1.0000  -1.6790   0.0000   0.0000   0.0000   0.3468
  11.600   0.6535   0.14352   0.13224  -0.0692  0.6590  1.0000  -1.6890   0.0000   0.0000   0.0000   0.3466
  11.700   0.6677   0.14793   0.13674  -0.0708  0.6514  1.0000  -1.7080   0.0000   0.0000   0.0000   0.3467
  11.800   0.7008   0.16022   0.14920  -0.0751  0.6440  1.0000  -1.7496   0.0000   0.0000   0.0000   0.3480
  11.900   0.7005   0.16189   0.15083  -0.0752  0.6419  1.0000  -1.7414   0.0000   0.0000   0.0000   0.3481
  12.000   0.6879   0.15823   0.14712  -0.0735  0.6397  1.0000  -1.7179   0.0000   0.0000   0.0000   0.3474
  12.100   0.6758   0.15442   0.14327  -0.0718  0.6341  1.0000  -1.6958   0.0000   0.0000   0.0000   0.3466
  12.200   0.6721   0.15336   0.14221  -0.0711  0.6254  1.0000  -1.6854   0.0000   0.0000   0.0000   0.3461
  12.300   0.6751   0.15448   0.14335  -0.0712  0.6168  1.0000  -1.6836   0.0000   0.0000   0.0000   0.3457
  12.400   0.6870   0.15809   0.14704  -0.0721  0.6057  1.0000  -1.6935   0.0000   0.0000   0.0000   0.3452
  12.500   0.7142   0.16938   0.15842  -0.0746  0.5904  1.0000  -1.7185   0.0000   0.0000   0.0000   0.3448
  12.600   0.7032   0.16580   0.15480  -0.0734  0.5871  1.0000  -1.6973   0.0000   0.0000   0.0000   0.3445
  12.700   0.6948   0.16286   0.15183  -0.0723  0.5789  1.0000  -1.6801   0.0000   0.0000   0.0000   0.3440
  12.800   0.7009   0.16398   0.15301  -0.0720  0.5595  1.0000  -1.6825   0.0000   0.0000   0.0000   0.3427
  12.900   0.7533   0.18527   0.17450  -0.0764  0.5419  1.0000  -1.7472   0.0000   0.0000   0.0000   0.3417
  13.000   0.7422   0.18182   0.17100  -0.0754  0.5407  1.0000  -1.7214   0.0000   0.0000   0.0000   0.3417
  13.100   0.7305   0.17780   0.16693  -0.0744  0.5385  1.0000  -1.6945   0.0000   0.0000   0.0000   0.3417
  13.200   0.7202   0.17398   0.16307  -0.0735  0.5337  1.0000  -1.6708   0.0000   0.0000   0.0000   0.3417
  13.300   0.7162   0.17249   0.16157  -0.0731  0.5262  1.0000  -1.6612   0.0000   0.0000   0.0000   0.3416
  13.400   0.7177   0.17311   0.16220  -0.0731  0.5183  1.0000  -1.6639   0.0000   0.0000   0.0000   0.3414
  13.500   0.7232   0.17516   0.16429  -0.0734  0.5106  1.0000  -1.6749   0.0000   0.0000   0.0000   0.3410
  13.600   0.7340   0.17927   0.16846  -0.0740  0.5031  1.0000  -1.6961   0.0000   0.0000   0.0000   0.3403
  13.700   0.7655   0.19320   0.18254  -0.0762  0.4944  1.0000  -1.7547   0.0000   0.0000   0.0000   0.3391
  13.800   0.7804   0.20291   0.19225  -0.0779  0.4911  1.0000  -1.7729   0.0000   0.0000   0.0000   0.3394
  13.900   0.7696   0.19888   0.18817  -0.0772  0.4900  1.0000  -1.7478   0.0000   0.0000   0.0000   0.3397
  14.000   0.7587   0.19441   0.18365  -0.0765  0.4880  1.0000  -1.7226   0.0000   0.0000   0.0000   0.3400
  14.100   0.7492   0.19002   0.17921  -0.0759  0.4842  1.0000  -1.7002   0.0000   0.0000   0.0000   0.3404
  14.200   0.7445   0.18785   0.17702  -0.0757  0.4779  1.0000  -1.6869   0.0000   0.0000   0.0000   0.3406
  14.300   0.7447   0.18798   0.17716  -0.0758  0.4709  1.0000  -1.6829   0.0000   0.0000   0.0000   0.3406
  14.400   0.7480   0.18944   0.17862  -0.0760  0.4640  1.0000  -1.6852   0.0000   0.0000   0.0000   0.3404
  14.500   0.7544   0.19208   0.18130  -0.0763  0.4574  1.0000  -1.6938   0.0000   0.0000   0.0000   0.3398
  14.600   0.7656   0.19690   0.18617  -0.0768  0.4509  1.0000  -1.7124   0.0000   0.0000   0.0000   0.3390
  14.700   0.8110   0.22273   0.21214  -0.0796  0.4409  1.0000  -1.7938   0.0000   0.0000   0.0000   0.3371
  14.800   0.8017   0.21894   0.20830  -0.0793  0.4401  1.0000  -1.7707   0.0000   0.0000   0.0000   0.3376
  14.900   0.7925   0.21462   0.20394  -0.0790  0.4390  1.0000  -1.7477   0.0000   0.0000   0.0000   0.3382
  15.000   0.7837   0.21008   0.19935  -0.0788  0.4370  1.0000  -1.7254   0.0000   0.0000   0.0000   0.3389
  15.100   0.7762   0.20625   0.19548  -0.0787  0.4333  1.0000  -1.7054   0.0000   0.0000   0.0000   0.3395
  15.200   0.7723   0.20441   0.19363  -0.0787  0.4270  1.0000  -1.6933   0.0000   0.0000   0.0000   0.3400
  15.300   0.7730   0.20468   0.19390  -0.0789  0.4189  1.0000  -1.6917   0.0000   0.0000   0.0000   0.3399
  15.400   0.7791   0.20699   0.19624  -0.0789  0.4086  1.0000  -1.7047   0.0000   0.0000   0.0000   0.3391
  15.500   0.8230   0.23196   0.22135  -0.0796  0.3906  1.0000  -1.8038   0.0000   0.0000   0.0000   0.3349
  15.600   0.8151   0.22796   0.21731  -0.0797  0.3897  1.0000  -1.7819   0.0000   0.0000   0.0000   0.3357
  15.700   0.8073   0.22394   0.21325  -0.0798  0.3883  1.0000  -1.7597   0.0000   0.0000   0.0000   0.3366
  15.800   0.8001   0.22025   0.20952  -0.0800  0.3857  1.0000  -1.7384   0.0000   0.0000   0.0000   0.3375
  15.900   0.7949   0.21778   0.20702  -0.0802  0.3810  1.0000  -1.7219   0.0000   0.0000   0.0000   0.3383
  16.000   0.7936   0.21727   0.20651  -0.0805  0.3744  1.0000  -1.7149   0.0000   0.0000   0.0000   0.3387
  16.100   0.7956   0.21833   0.20758  -0.0807  0.3672  1.0000  -1.7168   0.0000   0.0000   0.0000   0.3386
  16.200   0.8003   0.22054   0.20981  -0.0809  0.3607  1.0000  -1.7258   0.0000   0.0000   0.0000   0.3382
  16.300   0.8071   0.22378   0.21308  -0.0811  0.3556  1.0000  -1.7394   0.0000   0.0000   0.0000   0.3375
  16.400   0.8175   0.22898   0.21834  -0.0812  0.3509  1.0000  -1.7613   0.0000   0.0000   0.0000   0.3364
  16.500   0.8459   0.24607   0.23556  -0.0818  0.3451  1.0000  -1.8211   0.0000   0.0000   0.0000   0.3339
  16.600   0.8597   0.25801   0.24748  -0.0829  0.3430  1.0000  -1.8388   0.0000   0.0000   0.0000   0.3336
  16.700   0.8527   0.25436   0.24379  -0.0832  0.3425  1.0000  -1.8173   0.0000   0.0000   0.0000   0.3345
  16.800   0.8456   0.25063   0.24003  -0.0834  0.3418  1.0000  -1.7953   0.0000   0.0000   0.0000   0.3355
  16.900   0.8386   0.24695   0.23631  -0.0838  0.3407  1.0000  -1.7730   0.0000   0.0000   0.0000   0.3365
  17.000   0.8320   0.24357   0.23291  -0.0842  0.3389  1.0000  -1.7512   0.0000   0.0000   0.0000   0.3376
  17.100   0.8270   0.24113   0.23044  -0.0847  0.3361  1.0000  -1.7323   0.0000   0.0000   0.0000   0.3386
  17.200   0.8244   0.24022   0.22952  -0.0852  0.3322  1.0000  -1.7191   0.0000   0.0000   0.0000   0.3394
  17.300   0.8241   0.24058   0.22988  -0.0857  0.3279  1.0000  -1.7113   0.0000   0.0000   0.0000   0.3399
  17.400   0.8253   0.24170   0.23102  -0.0861  0.3235  1.0000  -1.7072   0.0000   0.0000   0.0000   0.3401
  17.500   0.8276   0.24333   0.23265  -0.0865  0.3192  1.0000  -1.7058   0.0000   0.0000   0.0000   0.3402
  17.600   0.8309   0.24540   0.23474  -0.0868  0.3149  1.0000  -1.7071   0.0000   0.0000   0.0000   0.3400
  17.700   0.8354   0.24804   0.23741  -0.0870  0.3108  1.0000  -1.7115   0.0000   0.0000   0.0000   0.3396
  17.800   0.8420   0.25169   0.24109  -0.0871  0.3067  1.0000  -1.7207   0.0000   0.0000   0.0000   0.3389
  17.900   0.8551   0.25960   0.24944  -0.0871  0.3018  1.0000  -1.7140   0.0000   0.0000   0.0000   0.3373
  18.000   0.8933   0.28778   0.27771  -0.0879  0.2968  1.0000  -1.7735   0.0000   0.0000   0.0000   0.3341
  18.100   0.8870   0.28463   0.27452  -0.0883  0.2964  1.0000  -1.7520   0.0000   0.0000   0.0000   0.3351
  18.200   0.8807   0.28144   0.27130  -0.0887  0.2959  1.0000  -1.7300   0.0000   0.0000   0.0000   0.3361
  18.300   0.8743   0.27826   0.26810  -0.0892  0.2953  1.0000  -1.7077   0.0000   0.0000   0.0000   0.3372
  18.400   0.8681   0.27518   0.26499  -0.0897  0.2944  1.0000  -1.6850   0.0000   0.0000   0.0000   0.3383
  18.500   0.8622   0.27241   0.26220  -0.0903  0.2930  1.0000  -1.6627   0.0000   0.0000   0.0000   0.3395
  18.600   0.8574   0.27034   0.26012  -0.0909  0.2910  1.0000  -1.6421   0.0000   0.0000   0.0000   0.3406
  18.700   0.8543   0.26940   0.25917  -0.0915  0.2881  1.0000  -1.6251   0.0000   0.0000   0.0000   0.3415
  18.800   0.8530   0.26958   0.25936  -0.0921  0.2847  1.0000  -1.6122   0.0000   0.0000   0.0000   0.3422
  18.900   0.8530   0.27052   0.26030  -0.0926  0.2811  1.0000  -1.6025   0.0000   0.0000   0.0000   0.3426
  19.000   0.8539   0.27193   0.26173  -0.0930  0.2775  1.0000  -1.5952   0.0000   0.0000   0.0000   0.3429
  19.100   0.8555   0.27367   0.26348  -0.0934  0.2739  1.0000  -1.5899   0.0000   0.0000   0.0000   0.3430
  19.200   0.8578   0.27571   0.26555  -0.0937  0.2704  1.0000  -1.5866   0.0000   0.0000   0.0000   0.3429
  19.300   0.8608   0.27811   0.26797  -0.0939  0.2670  1.0000  -1.5858   0.0000   0.0000   0.0000   0.3427
  19.400   0.8651   0.28107   0.27096  -0.0941  0.2636  1.0000  -1.5884   0.0000   0.0000   0.0000   0.3423
  19.500   0.8713   0.28512   0.27505  -0.0941  0.2603  1.0000  -1.5964   0.0000   0.0000   0.0000   0.3415
  19.600   0.8829   0.29236   0.28234  -0.0941  0.2568  1.0000  -1.6168   0.0000   0.0000   0.0000   0.3401
  19.700   0.9216   0.32101   0.31104  -0.0948  0.2525  1.0000  -1.6874   0.0000   0.0000   0.0000   0.3365
  19.800   0.9156   0.31842   0.30843  -0.0953  0.2522  1.0000  -1.6651   0.0000   0.0000   0.0000   0.3375
  19.900   0.9095   0.31581   0.30580  -0.0957  0.2519  1.0000  -1.6423   0.0000   0.0000   0.0000   0.3386
  20.000   0.9033   0.31321   0.30320  -0.0962  0.2514  1.0000  -1.6189   0.0000   0.0000   0.0000   0.3396
  20.100   0.8970   0.31069   0.30067  -0.0967  0.2509  1.0000  -1.5951   0.0000   0.0000   0.0000   0.3407
  20.200   0.8907   0.30833   0.29830  -0.0971  0.2501  1.0000  -1.5711   0.0000   0.0000   0.0000   0.3419
  20.300   0.8847   0.30627   0.29625  -0.0976  0.2490  1.0000  -1.5474   0.0000   0.0000   0.0000   0.3430
  20.400   0.8793   0.30476   0.29473  -0.0981  0.2475  1.0000  -1.5251   0.0000   0.0000   0.0000   0.3440
  20.500   0.8751   0.30400   0.29398  -0.0986  0.2455  1.0000  -1.5054   0.0000   0.0000   0.0000   0.3450
  20.600   0.8721   0.30403   0.29403  -0.0990  0.2431  1.0000  -1.4889   0.0000   0.0000   0.0000   0.3457
  20.700   0.8702   0.30467   0.29469  -0.0994  0.2404  1.0000  -1.4753   0.0000   0.0000   0.0000   0.3463
  20.800   0.8689   0.30571   0.29575  -0.0997  0.2377  1.0000  -1.4639   0.0000   0.0000   0.0000   0.3467
  20.900   0.8681   0.30699   0.29706  -0.1000  0.2350  1.0000  -1.4541   0.0000   0.0000   0.0000   0.3470
  21.000   0.8676   0.30845   0.29854  -0.1002  0.2323  1.0000  -1.4456   0.0000   0.0000   0.0000   0.3472
  21.100   0.8675   0.31004   0.30017  -0.1004  0.2296  1.0000  -1.4384   0.0000   0.0000   0.0000   0.3473
  21.200   0.8677   0.31180   0.30195  -0.1005  0.2270  1.0000  -1.4327   0.0000   0.0000   0.0000   0.3474
  21.300   0.8685   0.31376   0.30394  -0.1006  0.2244  1.0000  -1.4288   0.0000   0.0000   0.0000   0.3473
  21.400   0.8701   0.31607   0.30629  -0.1007  0.2219  1.0000  -1.4277   0.0000   0.0000   0.0000   0.3471
  21.500   0.8733   0.31904   0.30929  -0.1008  0.2194  1.0000  -1.4311   0.0000   0.0000   0.0000   0.3467
  21.600   0.8799   0.32350   0.31378  -0.1009  0.2168  1.0000  -1.4433   0.0000   0.0000   0.0000   0.3459
  21.700   0.8978   0.33351   0.32382  -0.1015  0.2137  1.0000  -1.4829   0.0000   0.0000   0.0000   0.3442
  21.800   0.9381   0.35981   0.35007  -0.1035  0.2108  1.0000  -1.5657   0.0000   0.0000   0.0000   0.3413
  21.900   0.9307   0.35746   0.34772  -0.1037  0.2106  1.0000  -1.5403   0.0000   0.0000   0.0000   0.3423
  22.000   0.9228   0.35501   0.34529  -0.1038  0.2103  1.0000  -1.5136   0.0000   0.0000   0.0000   0.3433
  22.100   0.9142   0.35245   0.34275  -0.1039  0.2100  1.0000  -1.4856   0.0000   0.0000   0.0000   0.3442
  22.200   0.9048   0.34974   0.34007  -0.1038  0.2097  1.0000  -1.4558   0.0000   0.0000   0.0000   0.3452
  22.300   0.8942   0.34680   0.33716  -0.1035  0.2092  1.0000  -1.4239   0.0000   0.0000   0.0000   0.3462
  22.400   0.8822   0.34348   0.33390  -0.1030  0.2087  1.0000  -1.3890   0.0000   0.0000   0.0000   0.3472
  22.500   0.8621   0.33790   0.32842  -0.1012  0.2082  1.0000  -1.3391   0.0000   0.0000   0.0000   0.3480
  22.600   0.8404   0.33115   0.32180  -0.0991  0.2077  1.0000  -1.2864   0.0000   0.0000   0.0000   0.3487
  22.700   0.8257   0.32619   0.31691  -0.0980  0.2069  1.0000  -1.2475   0.0000   0.0000   0.0000   0.3496
  22.800   0.8150   0.32247   0.31325  -0.0973  0.2057  1.0000  -1.2197   0.0000   0.0000   0.0000   0.3504
  22.900   0.8070   0.31979   0.31063  -0.0970  0.2043  1.0000  -1.1985   0.0000   0.0000   0.0000   0.3512
  23.000   0.8011   0.31800   0.30888  -0.0969  0.2027  1.0000  -1.1824   0.0000   0.0000   0.0000   0.3519
  23.100   0.7966   0.31687   0.30779  -0.0968  0.2009  1.0000  -1.1702   0.0000   0.0000   0.0000   0.3524
  23.200   0.7932   0.31622   0.30718  -0.0969  0.1990  1.0000  -1.1609   0.0000   0.0000   0.0000   0.3529
  23.300   0.7905   0.31589   0.30689  -0.0969  0.1970  1.0000  -1.1537   0.0000   0.0000   0.0000   0.3534
  23.400   0.7884   0.31581   0.30684  -0.0970  0.1951  1.0000  -1.1482   0.0000   0.0000   0.0000   0.3537
  23.500   0.7867   0.31591   0.30698  -0.0971  0.1931  1.0000  -1.1440   0.0000   0.0000   0.0000   0.3541
  23.600   0.7853   0.31617   0.30726  -0.0972  0.1911  1.0000  -1.1411   0.0000   0.0000   0.0000   0.3543
  23.700   0.7844   0.31656   0.30770  -0.0973  0.1891  1.0000  -1.1393   0.0000   0.0000   0.0000   0.3545
  23.800   0.7837   0.31712   0.30829  -0.0974  0.1871  1.0000  -1.1389   0.0000   0.0000   0.0000   0.3547
  23.900   0.7835   0.31788   0.30908  -0.0976  0.1851  1.0000  -1.1401   0.0000   0.0000   0.0000   0.3548
  24.000   0.7839   0.31893   0.31016  -0.0977  0.1831  1.0000  -1.1433   0.0000   0.0000   0.0000   0.3548
  24.100   0.7851   0.32045   0.31172  -0.0978  0.1810  1.0000  -1.1497   0.0000   0.0000   0.0000   0.3546
  24.200   0.7880   0.32296   0.31426  -0.0979  0.1788  1.0000  -1.1616   0.0000   0.0000   0.0000   0.3542
  24.300   0.7956   0.32857   0.31990  -0.0982  0.1763  1.0000  -1.1887   0.0000   0.0000   0.0000   0.3532
  24.400   0.8569   0.36970   0.36082  -0.1031  0.1720  1.0000  -1.3539   0.0000   0.0000   0.0000   0.3493
  24.500   0.8438   0.36370   0.35488  -0.1022  0.1718  1.0000  -1.3186   0.0000   0.0000   0.0000   0.3502
  24.600   0.8320   0.35805   0.34929  -0.1015  0.1716  1.0000  -1.2861   0.0000   0.0000   0.0000   0.3511
  24.700   0.8214   0.35272   0.34401  -0.1010  0.1714  1.0000  -1.2558   0.0000   0.0000   0.0000   0.3521
  24.800   0.8118   0.34772   0.33906  -0.1006  0.1711  1.0000  -1.2277   0.0000   0.0000   0.0000   0.3531
  24.900   0.8031   0.34308   0.33446  -0.1004  0.1708  1.0000  -1.2015   0.0000   0.0000   0.0000   0.3541
  25.000   0.7954   0.33883   0.33026  -0.1002  0.1703  1.0000  -1.1772   0.0000   0.0000   0.0000   0.3551
  25.100   0.7887   0.33509   0.32654  -0.1002  0.1698  1.0000  -1.1550   0.0000   0.0000   0.0000   0.3561
  25.200   0.7830   0.33191   0.32340  -0.1004  0.1690  1.0000  -1.1351   0.0000   0.0000   0.0000   0.3571
  25.300   0.7784   0.32939   0.32091  -0.1006  0.1680  1.0000  -1.1180   0.0000   0.0000   0.0000   0.3581
  25.400   0.7748   0.32758   0.31913  -0.1009  0.1667  1.0000  -1.1038   0.0000   0.0000   0.0000   0.3590
  25.500   0.7722   0.32644   0.31802  -0.1012  0.1651  1.0000  -1.0926   0.0000   0.0000   0.0000   0.3597
  25.600   0.7704   0.32584   0.31745  -0.1016  0.1633  1.0000  -1.0840   0.0000   0.0000   0.0000   0.3603
  25.700   0.7692   0.32563   0.31726  -0.1019  0.1613  1.0000  -1.0775   0.0000   0.0000   0.0000   0.3609
  25.800   0.7683   0.32569   0.31755  -0.1023  0.1594  1.0000  -1.0686   0.0000   0.0000   0.0000   0.3613
  25.900   0.7677   0.32592   0.31780  -0.1026  0.1573  1.0000  -1.0641   0.0000   0.0000   0.0000   0.3617
  26.000   0.7673   0.32627   0.31819  -0.1029  0.1553  1.0000  -1.0610   0.0000   0.0000   0.0000   0.3621
  26.100   0.7671   0.32674   0.31869  -0.1032  0.1533  1.0000  -1.0590   0.0000   0.0000   0.0000   0.3623
  26.200   0.7671   0.32733   0.31930  -0.1034  0.1513  1.0000  -1.0580   0.0000   0.0000   0.0000   0.3625
  26.300   0.7673   0.32804   0.32004  -0.1037  0.1494  1.0000  -1.0583   0.0000   0.0000   0.0000   0.3627
  26.400   0.7678   0.32892   0.32095  -0.1039  0.1475  1.0000  -1.0599   0.0000   0.0000   0.0000   0.3628
  26.500   0.7687   0.33005   0.32211  -0.1041  0.1456  1.0000  -1.0632   0.0000   0.0000   0.0000   0.3628
  26.600   0.7701   0.33160   0.32369  -0.1043  0.1438  1.0000  -1.0690   0.0000   0.0000   0.0000   0.3626
  26.700   0.7725   0.33397   0.32609  -0.1044  0.1420  1.0000  -1.0789   0.0000   0.0000   0.0000   0.3623
  26.800   0.7772   0.33838   0.33054  -0.1046  0.1402  1.0000  -1.0975   0.0000   0.0000   0.0000   0.3615


