xflr5 v6.61

 Calculated polar for: RG 14 AIRFOIL

 1 1 Reynolds number fixed          Mach number fixed         

 xtrf =   1.000 (top)        1.000 (bottom)
 Mach =   0.000     Re =     0.160 e 6     Ncrit =   9.000

  alpha     CL        CD       CDp       Cm    Top Xtr Bot Xtr   Cpmin    Chinge    XCp    
 ------- -------- --------- --------- -------- ------- ------- -------- --------- ---------
   0.000   0.1840   0.01092   0.00519  -0.0423  0.9497  1.0000  -0.4202   0.0000   0.0000   0.0000   0.4792
   0.500   0.2775   0.01057   0.00479  -0.0497  0.9295  1.0000  -0.5008   0.0000   0.0000   0.0000   0.4281
   1.000   0.3573   0.01013   0.00435  -0.0540  0.9004  1.0000  -0.5875   0.0000   0.0000   0.0000   0.3997
   2.000   0.4692   0.00978   0.00391  -0.0524  0.8136  1.0000  -0.7757   0.0000   0.0000   0.0000   0.3599
   2.500   0.5145   0.00987   0.00388  -0.0496  0.7605  1.0000  -0.8784   0.0000   0.0000   0.0000   0.3442
   3.000   0.5592   0.01010   0.00393  -0.0467  0.7031  1.0000  -1.0280   0.0000   0.0000   0.0000   0.3310
   3.500   0.6032   0.01051   0.00409  -0.0438  0.6417  1.0000  -1.1871   0.0000   0.0000   0.0000   0.3197
   4.000   0.6464   0.01094   0.00440  -0.0410  0.5765  1.0000  -1.4279   0.0000   0.0000   0.0000   0.3101
   4.500   0.6897   0.01155   0.00478  -0.0382  0.5044  1.0000  -1.7954   0.0000   0.0000   0.0000   0.3018
   5.000   0.7328   0.01229   0.00565  -0.0357  0.4266  1.0000  -2.1620   0.0000   0.0000   0.0000   0.2946
   5.500   0.7738   0.01329   0.00635  -0.0330  0.3369  1.0000  -2.5545   0.0000   0.0000   0.0000   0.2882
   6.000   0.8142   0.01455   0.00729  -0.0306  0.2440  1.0000  -2.9696   0.0000   0.0000   0.0000   0.2826
   6.500   0.8528   0.01627   0.00863  -0.0281  0.1553  1.0000  -3.5457   0.0000   0.0000   0.0000   0.2775
   7.000   0.8890   0.01879   0.01094  -0.0251  0.1014  1.0000  -4.0828   0.0000   0.0000   0.0000   0.2722
   7.500   0.9276   0.02105   0.01327  -0.0225  0.0666  1.0000  -4.6236   0.0000   0.0000   0.0000   0.2678
   8.000   0.9590   0.02412   0.01626  -0.0195  0.0310  1.0000  -4.9890   0.0000   0.0000   0.0000   0.2633
   8.500   0.9928   0.02718   0.01950  -0.0167  0.0209  1.0000  -5.3749   0.0000   0.0000   0.0000   0.2593
   9.000   1.0175   0.03420   0.02743  -0.0127  0.0172  1.0000  -5.3141   0.0000   0.0000   0.0000   0.2544
   9.500   1.0337   0.04058   0.03460  -0.0084  0.0163  1.0000  -5.3710   0.0000   0.0000   0.0000   0.2496
  10.000   1.0298   0.04771   0.04247  -0.0035  0.0162  1.0000  -5.3361   0.0000   0.0000   0.0000   0.2443
  10.500   1.0037   0.05450   0.04979   0.0019  0.0164  1.0000  -5.2425   0.0000   0.0000   0.0000   0.2386
  11.000   0.9681   0.06262   0.05835   0.0025  0.0166  1.0000  -5.1029   0.0000   0.0000   0.0000   0.2372
  11.500   0.9290   0.07389   0.06997  -0.0034  0.0168  1.0000  -4.8958   0.0000   0.0000   0.0000   0.2428
  12.000   0.8871   0.08968   0.08601  -0.0152  0.0172  1.0000  -4.5621   0.0000   0.0000   0.0000   0.2556
  12.500   0.8445   0.11062   0.10703  -0.0289  0.0181  1.0000  -4.0034   0.0000   0.0000   0.0000   0.2727
  13.500   0.8263   0.13841   0.13467  -0.0424  0.0201  1.0000  -3.3921   0.0000   0.0000   0.0000   0.2893
  14.000   0.8059   0.15866   0.15479  -0.0523  0.0266  1.0000  -2.5098   0.0000   0.0000   0.0000   0.3032
  14.500   0.8120   0.16972   0.16586  -0.0561  0.0377  1.0000  -2.2604   0.0000   0.0000   0.0000   0.3071
  15.000   0.8169   0.17945   0.17558  -0.0609  0.0378  1.0000  -2.1368   0.0000   0.0000   0.0000   0.3121
  15.500   0.8292   0.18794   0.18408  -0.0635  0.0365  1.0000  -2.1650   0.0000   0.0000   0.0000   0.3135
  16.000   0.8399   0.19846   0.19474  -0.0657  0.0349  1.0000  -2.1666   0.0000   0.0000   0.0000   0.3146
  16.500   0.8408   0.21372   0.20992  -0.0704  0.0338  1.0000  -1.9845   0.0000   0.0000   0.0000   0.3197
  17.000   0.8503   0.22388   0.22009  -0.0745  0.0337  1.0000  -1.9248   0.0000   0.0000   0.0000   0.3231
  17.500   0.8595   0.23381   0.23003  -0.0787  0.0336  1.0000  -1.8729   0.0000   0.0000   0.0000   0.3265
  18.000   0.8684   0.24330   0.23952  -0.0830  0.0334  1.0000  -1.8244   0.0000   0.0000   0.0000   0.3299
  18.500   0.8748   0.25153   0.24775  -0.0879  0.0328  1.0000  -1.7564   0.0000   0.0000   0.0000   0.3342
  19.000   0.8797   0.25935   0.25556  -0.0939  0.0306  1.0000  -1.6449   0.0000   0.0000   0.0000   0.3398
  19.500   0.8873   0.26940   0.26564  -0.0980  0.0281  1.0000  -1.5980   0.0000   0.0000   0.0000   0.3429
  20.000   0.8940   0.27965   0.27591  -0.1015  0.0262  1.0000  -1.6178   0.0000   0.0000   0.0000   0.3453


