xflr5 v6.61

 Calculated polar for: RG 14 AIRFOIL

 1 1 Reynolds number fixed          Mach number fixed         

 xtrf =   1.000 (top)        1.000 (bottom)
 Mach =   0.000     Re =     0.130 e 6     Ncrit =   9.000

  alpha     CL        CD       CDp       Cm    Top Xtr Bot Xtr   Cpmin    Chinge    XCp    
 ------- -------- --------- --------- -------- ------- ------- -------- --------- ---------
   0.000   0.1211   0.01237   0.00600  -0.0317  0.9575  1.0000  -0.3828   0.0000   0.0000   0.0000   0.5113
   0.500   0.2159   0.01232   0.00588  -0.0397  0.9351  1.0000  -0.4594   0.0000   0.0000   0.0000   0.4326
   1.000   0.3109   0.01202   0.00560  -0.0471  0.9118  1.0000  -0.5503   0.0000   0.0000   0.0000   0.4002
   1.500   0.3929   0.01159   0.00527  -0.0515  0.8810  1.0000  -0.6507   0.0000   0.0000   0.0000   0.3793
   2.000   0.4573   0.01128   0.00494  -0.0520  0.8399  1.0000  -0.7597   0.0000   0.0000   0.0000   0.3618
   2.500   0.5111   0.01117   0.00475  -0.0503  0.7910  1.0000  -0.8697   0.0000   0.0000   0.0000   0.3463
   3.000   0.5594   0.01131   0.00473  -0.0477  0.7363  1.0000  -1.0237   0.0000   0.0000   0.0000   0.3328
   3.500   0.6027   0.01160   0.00493  -0.0445  0.6751  1.0000  -1.1810   0.0000   0.0000   0.0000   0.3210
   4.000   0.6471   0.01201   0.00517  -0.0415  0.6085  1.0000  -1.4210   0.0000   0.0000   0.0000   0.3109
   4.500   0.6907   0.01263   0.00554  -0.0386  0.5366  1.0000  -1.7890   0.0000   0.0000   0.0000   0.3023
   5.000   0.7330   0.01332   0.00642  -0.0356  0.4557  1.0000  -2.1527   0.0000   0.0000   0.0000   0.2946
   5.500   0.7741   0.01428   0.00716  -0.0328  0.3676  1.0000  -2.5419   0.0000   0.0000   0.0000   0.2879
   6.000   0.8127   0.01561   0.00813  -0.0299  0.2698  1.0000  -2.9454   0.0000   0.0000   0.0000   0.2818
   6.500   0.8475   0.01773   0.00970  -0.0268  0.1728  1.0000  -3.4453   0.0000   0.0000   0.0000   0.2761
   7.000   0.8859   0.01995   0.01183  -0.0240  0.1161  1.0000  -3.9936   0.0000   0.0000   0.0000   0.2712
   7.500   0.9210   0.02367   0.01546  -0.0210  0.0768  1.0000  -4.4541   0.0000   0.0000   0.0000   0.2664
   8.000   0.9563   0.02750   0.01956  -0.0175  0.0447  1.0000  -4.6706   0.0000   0.0000   0.0000   0.2614
   8.500   0.9883   0.03016   0.02235  -0.0152  0.0286  1.0000  -5.1478   0.0000   0.0000   0.0000   0.2579
   9.000   1.0175   0.03465   0.02742  -0.0121  0.0217  1.0000  -5.3139   0.0000   0.0000   0.0000   0.2538
   9.500   1.0307   0.04229   0.03581  -0.0080  0.0199  1.0000  -5.3252   0.0000   0.0000   0.0000   0.2492
  10.000   1.0259   0.05004   0.04432  -0.0032  0.0196  1.0000  -5.2692   0.0000   0.0000   0.0000   0.2442
  10.500   1.0052   0.05657   0.05140   0.0018  0.0197  1.0000  -5.2124   0.0000   0.0000   0.0000   0.2387
  11.000   0.9763   0.06364   0.05890   0.0034  0.0199  1.0000  -5.1284   0.0000   0.0000   0.0000   0.2363
  11.500   0.9428   0.07314   0.06879  -0.0006  0.0203  1.0000  -4.9771   0.0000   0.0000   0.0000   0.2398
  12.000   0.8982   0.08852   0.08454  -0.0122  0.0213  1.0000  -4.6024   0.0000   0.0000   0.0000   0.2522
  12.500   0.8289   0.12038   0.11628  -0.0326  0.0265  1.0000  -3.4691   0.0000   0.0000   0.0000   0.2784
  13.000   0.8125   0.13532   0.13113  -0.0400  0.0283  1.0000  -3.0761   0.0000   0.0000   0.0000   0.2881
  13.500   0.8063   0.14756   0.14331  -0.0457  0.0298  1.0000  -2.8071   0.0000   0.0000   0.0000   0.2953
  14.000   0.8052   0.15827   0.15398  -0.0501  0.0320  1.0000  -2.6134   0.0000   0.0000   0.0000   0.3005
  14.500   0.8089   0.17804   0.17376  -0.0532  0.0532  1.0000  -2.1809   0.0000   0.0000   0.0000   0.3040
  15.000   0.8162   0.18761   0.18332  -0.0577  0.0531  1.0000  -2.0878   0.0000   0.0000   0.0000   0.3085
  15.500   0.8240   0.19605   0.19174  -0.0626  0.0525  1.0000  -2.0027   0.0000   0.0000   0.0000   0.3133
  16.000   0.8245   0.20151   0.19715  -0.0704  0.0484  1.0000  -1.8431   0.0000   0.0000   0.0000   0.3222
  16.500   0.8329   0.21033   0.20596  -0.0750  0.0444  1.0000  -1.7847   0.0000   0.0000   0.0000   0.3263
  17.000   0.8430   0.21936   0.21499  -0.0787  0.0413  1.0000  -1.7680   0.0000   0.0000   0.0000   0.3290
  17.500   0.8537   0.22870   0.22449  -0.0820  0.0390  1.0000  -1.7475   0.0000   0.0000   0.0000   0.3310
  18.000   0.8662   0.23801   0.23384  -0.0843  0.0369  1.0000  -1.8030   0.0000   0.0000   0.0000   0.3316
  18.500   0.8852   0.25146   0.24736  -0.0841  0.0347  1.0000  -1.9500   0.0000   0.0000   0.0000   0.3287
  19.000   0.8879   0.26747   0.26332  -0.0881  0.0338  1.0000  -1.8258   0.0000   0.0000   0.0000   0.3324
  19.500   0.8945   0.27752   0.27339  -0.0919  0.0337  1.0000  -1.7796   0.0000   0.0000   0.0000   0.3353
  20.000   0.8997   0.28708   0.28298  -0.0958  0.0335  1.0000  -1.7716   0.0000   0.0000   0.0000   0.3384


