xflr5 v6.61

 Calculated polar for: RG 14 AIRFOIL

 1 1 Reynolds number fixed          Mach number fixed         

 xtrf =   1.000 (top)        1.000 (bottom)
 Mach =   0.000     Re =     0.100 e 6     Ncrit =   9.000

  alpha     CL        CD       CDp       Cm    Top Xtr Bot Xtr   Cpmin    Chinge    XCp    
 ------- -------- --------- --------- -------- ------- ------- -------- --------- ---------
   0.000   0.0388   0.01395   0.00669  -0.0175  0.9836  1.0000  -0.3758   0.0000   0.0000   0.0000   0.7001
   0.500   0.1393   0.01452   0.00715  -0.0274  0.9577  1.0000  -0.4082   0.0000   0.0000   0.0000   0.4452
   1.000   0.2398   0.01470   0.00730  -0.0365  0.9310  1.0000  -0.4949   0.0000   0.0000   0.0000   0.4007
   1.500   0.3395   0.01447   0.00715  -0.0447  0.9030  1.0000  -0.6002   0.0000   0.0000   0.0000   0.3800
   2.000   0.4269   0.01402   0.00685  -0.0497  0.8697  1.0000  -0.7220   0.0000   0.0000   0.0000   0.3644
   2.500   0.4994   0.01357   0.00645  -0.0511  0.8281  1.0000  -0.8467   0.0000   0.0000   0.0000   0.3502
   3.000   0.5536   0.01345   0.00632  -0.0491  0.7763  1.0000  -1.0051   0.0000   0.0000   0.0000   0.3362
   3.500   0.6003   0.01356   0.00639  -0.0459  0.7160  1.0000  -1.1674   0.0000   0.0000   0.0000   0.3236
   4.000   0.6476   0.01382   0.00649  -0.0427  0.6506  1.0000  -1.4054   0.0000   0.0000   0.0000   0.3128
   4.500   0.6915   0.01432   0.00688  -0.0395  0.5782  1.0000  -1.7718   0.0000   0.0000   0.0000   0.3035
   5.000   0.7340   0.01503   0.00774  -0.0360  0.4972  1.0000  -2.1377   0.0000   0.0000   0.0000   0.2951
   5.500   0.7739   0.01594   0.00849  -0.0326  0.4060  1.0000  -2.5168   0.0000   0.0000   0.0000   0.2877
   6.000   0.8104   0.01735   0.00946  -0.0290  0.3031  1.0000  -2.9062   0.0000   0.0000   0.0000   0.2809
   6.500   0.8456   0.01959   0.01128  -0.0256  0.2050  1.0000  -3.3355   0.0000   0.0000   0.0000   0.2749
   7.000   0.8809   0.02260   0.01395  -0.0226  0.1357  1.0000  -3.8374   0.0000   0.0000   0.0000   0.2697
   7.500   0.9214   0.02625   0.01781  -0.0198  0.0987  1.0000  -4.2809   0.0000   0.0000   0.0000   0.2651
   8.000   0.9540   0.02980   0.02142  -0.0164  0.0600  1.0000  -4.5704   0.0000   0.0000   0.0000   0.2603
   8.500   0.9847   0.03768   0.03005  -0.0129  0.0496  1.0000  -4.6140   0.0000   0.0000   0.0000   0.2557
   9.000   1.0046   0.04088   0.03361  -0.0101  0.0323  1.0000  -4.9671   0.0000   0.0000   0.0000   0.2521
   9.500   1.0154   0.04755   0.04113  -0.0057  0.0297  1.0000  -4.9535   0.0000   0.0000   0.0000   0.2472
  10.000   1.0041   0.05515   0.04948  -0.0011  0.0291  1.0000  -4.8628   0.0000   0.0000   0.0000   0.2423
  10.500   0.9717   0.06250   0.05733   0.0030  0.0293  1.0000  -4.7316   0.0000   0.0000   0.0000   0.2376
  11.000   0.9311   0.07183   0.06703   0.0011  0.0299  1.0000  -4.5548   0.0000   0.0000   0.0000   0.2389
  11.500   0.8879   0.08516   0.08062  -0.0078  0.0310  1.0000  -4.2974   0.0000   0.0000   0.0000   0.2483
  12.000   0.8512   0.10150   0.09681  -0.0189  0.0329  1.0000  -4.0252   0.0000   0.0000   0.0000   0.2613
  12.500   0.7886   0.14409   0.13939  -0.0424  0.1116  1.0000  -2.2623   0.0000   0.0000   0.0000   0.2943
  13.000   0.8000   0.14164   0.13685  -0.0415  0.0461  1.0000  -2.7510   0.0000   0.0000   0.0000   0.2912
  13.500   0.7980   0.15288   0.14803  -0.0467  0.0477  1.0000  -2.5518   0.0000   0.0000   0.0000   0.2975
  14.000   0.8071   0.17396   0.16914  -0.0486  0.0769  1.0000  -2.2220   0.0000   0.0000   0.0000   0.2992
  14.500   0.8113   0.18160   0.17674  -0.0540  0.0761  1.0000  -2.1080   0.0000   0.0000   0.0000   0.3050
  15.000   0.8045   0.18527   0.18034  -0.0626  0.0695  1.0000  -1.9268   0.0000   0.0000   0.0000   0.3158
  15.500   0.8124   0.19349   0.18854  -0.0668  0.0643  1.0000  -1.8679   0.0000   0.0000   0.0000   0.3196
  16.000   0.8237   0.20199   0.19705  -0.0699  0.0603  1.0000  -1.8562   0.0000   0.0000   0.0000   0.3217
  16.500   0.8405   0.21126   0.20635  -0.0713  0.0568  1.0000  -1.9164   0.0000   0.0000   0.0000   0.3211
  17.000   0.8574   0.23128   0.22654  -0.0713  0.0534  1.0000  -1.9227   0.0000   0.0000   0.0000   0.3190
  17.500   0.8654   0.24053   0.23579  -0.0757  0.0532  1.0000  -1.8632   0.0000   0.0000   0.0000   0.3227
  18.000   0.8719   0.24863   0.24389  -0.0804  0.0527  1.0000  -1.7993   0.0000   0.0000   0.0000   0.3268
  18.500   0.8709   0.25378   0.24901  -0.0865  0.0516  1.0000  -1.6855   0.0000   0.0000   0.0000   0.3333
  19.000   0.8744   0.26093   0.25616  -0.0923  0.0481  1.0000  -1.5867   0.0000   0.0000   0.0000   0.3389
  19.500   0.8813   0.27069   0.26594  -0.0961  0.0448  1.0000  -1.5520   0.0000   0.0000   0.0000   0.3417
  20.000   0.8876   0.28062   0.27591  -0.0993  0.0421  1.0000  -1.5361   0.0000   0.0000   0.0000   0.3439


