xflr5 v6.61

 Calculated polar for: RG 14 AIRFOIL

 1 1 Reynolds number fixed          Mach number fixed         

 xtrf =   1.000 (top)        1.000 (bottom)
 Mach =   0.000     Re =     0.002 e 6     Ncrit =   9.000

  alpha     CL        CD       CDp       Cm    Top Xtr Bot Xtr   Cpmin    Chinge    XCp    
 ------- -------- --------- --------- -------- ------- ------- -------- --------- ---------
   0.000   0.0316   0.07716   0.01924  -0.0159  1.0000  1.0000  -0.3541   0.0000   0.0000   0.0000   0.7562
   0.500   0.0653   0.07740   0.01903  -0.0143  1.0000  1.0000  -0.3655   0.0000   0.0000   0.0000   0.4674
   1.000   0.0985   0.07780   0.01923  -0.0127  1.0000  1.0000  -0.3967   0.0000   0.0000   0.0000   0.3766
   1.500   0.1312   0.07836   0.01947  -0.0111  1.0000  1.0000  -0.4330   0.0000   0.0000   0.0000   0.3324
   2.000   0.1633   0.07912   0.02027  -0.0096  1.0000  1.0000  -0.4709   0.0000   0.0000   0.0000   0.3062
   2.500   0.1944   0.08009   0.02144  -0.0082  1.0000  1.0000  -0.5126   0.0000   0.0000   0.0000   0.2891
   3.000   0.2244   0.08128   0.02297  -0.0069  1.0000  1.0000  -0.5582   0.0000   0.0000   0.0000   0.2773
   3.500   0.2533   0.08275   0.02533  -0.0057  1.0000  1.0000  -0.6062   0.0000   0.0000   0.0000   0.2689
   4.000   0.2808   0.08446   0.02747  -0.0049  1.0000  1.0000  -0.6605   0.0000   0.0000   0.0000   0.2632
   4.500   0.3069   0.08645   0.03003  -0.0041  1.0000  1.0000  -0.7157   0.0000   0.0000   0.0000   0.2590
   5.000   0.3314   0.08874   0.03298  -0.0036  1.0000  1.0000  -0.7768   0.0000   0.0000   0.0000   0.2562
   5.500   0.3544   0.09135   0.03633  -0.0034  1.0000  1.0000  -0.8398   0.0000   0.0000   0.0000   0.2544
   6.000   0.3757   0.09430   0.04007  -0.0035  1.0000  1.0000  -0.9027   0.0000   0.0000   0.0000   0.2537
   6.500   0.3954   0.09760   0.04421  -0.0039  1.0000  1.0000  -0.9749   0.0000   0.0000   0.0000   0.2539
   7.000   0.4137   0.10127   0.04873  -0.0047  1.0000  1.0000  -1.0407   0.0000   0.0000   0.0000   0.2550
   7.500   0.4305   0.10529   0.05361  -0.0059  1.0000  1.0000  -1.0993   0.0000   0.0000   0.0000   0.2569
   8.000   0.4460   0.10966   0.05882  -0.0075  1.0000  1.0000  -1.1673   0.0000   0.0000   0.0000   0.2595
   8.500   0.4605   0.11435   0.06433  -0.0094  1.0000  1.0000  -1.2388   0.0000   0.0000   0.0000   0.2627
   9.000   0.4743   0.11935   0.07011  -0.0117  1.0000  1.0000  -1.3013   0.0000   0.0000   0.0000   0.2664
   9.500   0.4875   0.12462   0.07613  -0.0142  1.0000  1.0000  -1.3548   0.0000   0.0000   0.0000   0.2705
  10.000   0.5011   0.13018   0.08412  -0.0168  1.0000  1.0000  -1.4696   0.0000   0.0000   0.0000   0.2745
  10.500   0.5140   0.13591   0.09052  -0.0198  1.0000  1.0000  -1.5396   0.0000   0.0000   0.0000   0.2791
  11.000   0.5268   0.14185   0.09707  -0.0231  1.0000  1.0000  -1.6034   0.0000   0.0000   0.0000   0.2838
  11.500   0.5398   0.14798   0.10377  -0.0264  1.0000  1.0000  -1.6605   0.0000   0.0000   0.0000   0.2885
  12.000   0.5529   0.15431   0.11062  -0.0299  1.0000  1.0000  -1.7108   0.0000   0.0000   0.0000   0.2931
  12.500   0.5662   0.16082   0.11764  -0.0334  1.0000  1.0000  -1.7544   0.0000   0.0000   0.0000   0.2976
  13.000   0.5797   0.16751   0.12480  -0.0370  1.0000  1.0000  -1.7916   0.0000   0.0000   0.0000   0.3019
  13.500   0.5934   0.17433   0.13208  -0.0406  1.0000  1.0000  -1.8226   0.0000   0.0000   0.0000   0.3060
  14.000   0.6073   0.18137   0.13954  -0.0442  1.0000  1.0000  -1.8477   0.0000   0.0000   0.0000   0.3099
  14.500   0.6212   0.18866   0.14725  -0.0478  1.0000  1.0000  -1.8666   0.0000   0.0000   0.0000   0.3136
  15.000   0.6351   0.19622   0.15522  -0.0515  1.0000  1.0000  -1.8797   0.0000   0.0000   0.0000   0.3171
  15.500   0.6489   0.20405   0.16345  -0.0550  1.0000  1.0000  -1.8869   0.0000   0.0000   0.0000   0.3203
  16.000   0.6626   0.21215   0.17194  -0.0586  1.0000  1.0000  -1.8885   0.0000   0.0000   0.0000   0.3234
  16.500   0.6760   0.22051   0.18069  -0.0621  1.0000  1.0000  -1.8847   0.0000   0.0000   0.0000   0.3263
  17.000   0.6891   0.22913   0.18969  -0.0656  1.0000  1.0000  -1.8757   0.0000   0.0000   0.0000   0.3290
  17.500   0.7019   0.23798   0.19892  -0.0690  1.0000  1.0000  -1.8618   0.0000   0.0000   0.0000   0.3316
  18.000   0.7142   0.24707   0.20838  -0.0724  1.0000  1.0000  -1.8433   0.0000   0.0000   0.0000   0.3340
  18.500   0.7259   0.25674   0.21978  -0.0756  1.0000  1.0000  -1.8108   0.0000   0.0000   0.0000   0.3362
  19.000   0.7371   0.26621   0.22963  -0.0788  1.0000  1.0000  -1.7848   0.0000   0.0000   0.0000   0.3384
  19.500   0.7476   0.27580   0.23961  -0.0819  1.0000  1.0000  -1.7938   0.0000   0.0000   0.0000   0.3404
  20.000   0.7574   0.28550   0.24970  -0.0848  1.0000  1.0000  -1.7986   0.0000   0.0000   0.0000   0.3423


