xflr5 v6.61

 Calculated polar for: RG 14 AIRFOIL

 1 1 Reynolds number fixed          Mach number fixed         

 xtrf =   1.000 (top)        1.000 (bottom)
 Mach =   0.000     Re =     0.040 e 6     Ncrit =   9.000

  alpha     CL        CD       CDp       Cm    Top Xtr Bot Xtr   Cpmin    Chinge    XCp    
 ------- -------- --------- --------- -------- ------- ------- -------- --------- ---------
   0.000   0.0051   0.01903   0.00735  -0.0098  1.0000  1.0000  -0.4164   0.0000   0.0000   0.0000   2.1825
   0.500   0.0388   0.01966   0.00780  -0.0081  1.0000  1.0000  -0.3498   0.0000   0.0000   0.0000   0.4562
   1.000   0.0722   0.02051   0.00854  -0.0069  1.0000  1.0000  -0.3830   0.0000   0.0000   0.0000   0.3416
   1.500   0.1047   0.02162   0.00960  -0.0060  1.0000  1.0000  -0.4177   0.0000   0.0000   0.0000   0.3041
   2.000   0.1359   0.02302   0.01091  -0.0057  1.0000  1.0000  -0.4560   0.0000   0.0000   0.0000   0.2879
   2.500   0.1654   0.02476   0.01269  -0.0058  1.0000  1.0000  -0.4939   0.0000   0.0000   0.0000   0.2810
   3.000   0.2807   0.02807   0.01637  -0.0216  0.9540  1.0000  -0.6175   0.0000   0.0000   0.0000   0.3236
   3.500   0.3984   0.03047   0.01911  -0.0352  0.8917  1.0000  -0.7732   0.0000   0.0000   0.0000   0.3351
   4.000   0.5299   0.03132   0.02060  -0.0471  0.8237  1.0000  -1.0408   0.0000   0.0000   0.0000   0.3356
   4.500   0.6119   0.03133   0.02115  -0.0483  0.7500  1.0000  -1.2755   0.0000   0.0000   0.0000   0.3254
   5.000   0.6937   0.03042   0.02076  -0.0460  0.6694  1.0000  -1.7755   0.0000   0.0000   0.0000   0.3126
   5.500   0.7595   0.02950   0.02077  -0.0399  0.5751  1.0000  -2.2350   0.0000   0.0000   0.0000   0.2985
   6.000   0.8067   0.02987   0.02108  -0.0327  0.4657  1.0000  -2.6366   0.0000   0.0000   0.0000   0.2860
   6.500   0.8467   0.03171   0.02252  -0.0261  0.3551  1.0000  -2.9903   0.0000   0.0000   0.0000   0.2759
   7.000   0.8807   0.03517   0.02582  -0.0211  0.2677  1.0000  -3.2667   0.0000   0.0000   0.0000   0.2685
   7.500   0.9169   0.04134   0.03190  -0.0176  0.2113  1.0000  -3.5888   0.0000   0.0000   0.0000   0.2633
   8.000   0.9437   0.04764   0.03859  -0.0139  0.1730  1.0000  -3.8261   0.0000   0.0000   0.0000   0.2584
   8.500   0.9458   0.05644   0.04851  -0.0101  0.1626  1.0000  -3.7635   0.0000   0.0000   0.0000   0.2541
   9.000   0.9291   0.06605   0.05877  -0.0077  0.1555  1.0000  -3.6354   0.0000   0.0000   0.0000   0.2515
   9.500   0.9246   0.07222   0.06497  -0.0048  0.1286  1.0000  -3.7202   0.0000   0.0000   0.0000   0.2478
  10.000   0.8845   0.08295   0.07585  -0.0057  0.1315  1.0000  -3.5100   0.0000   0.0000   0.0000   0.2487
  10.500   0.8513   0.09613   0.08899  -0.0111  0.1346  1.0000  -3.2801   0.0000   0.0000   0.0000   0.2549
  11.500   0.8010   0.13047   0.12315  -0.0331  0.1758  1.0000  -2.5368   0.0000   0.0000   0.0000   0.2829
  12.000   0.7304   0.14917   0.14149  -0.0570  0.3281  1.0000  -1.8483   0.0000   0.0000   0.0000   0.3194
  12.500   0.7590   0.16159   0.15399  -0.0563  0.2912  1.0000  -1.8998   0.0000   0.0000   0.0000   0.3152
  13.000   0.7916   0.17213   0.16465  -0.0549  0.2562  1.0000  -1.9857   0.0000   0.0000   0.0000   0.3100
  13.500   0.7975   0.18535   0.17780  -0.0580  0.2505  1.0000  -1.9484   0.0000   0.0000   0.0000   0.3130
  14.000   0.7681   0.17910   0.17140  -0.0627  0.2353  1.0000  -1.8188   0.0000   0.0000   0.0000   0.3211
  14.500   0.7901   0.18884   0.18120  -0.0636  0.2193  1.0000  -1.8731   0.0000   0.0000   0.0000   0.3196
  15.000   0.8350   0.21652   0.20898  -0.0636  0.2100  1.0000  -1.9654   0.0000   0.0000   0.0000   0.3151
  15.500   0.8037   0.20534   0.19763  -0.0698  0.2030  1.0000  -1.8147   0.0000   0.0000   0.0000   0.3249
  16.000   0.8099   0.21089   0.20317  -0.0730  0.1879  1.0000  -1.7820   0.0000   0.0000   0.0000   0.3275
  17.000   0.8586   0.24526   0.23761  -0.0754  0.1707  1.0000  -1.8044   0.0000   0.0000   0.0000   0.3243
  17.500   0.8405   0.23917   0.23143  -0.0815  0.1632  1.0000  -1.6768   0.0000   0.0000   0.0000   0.3326
  18.000   0.8484   0.24717   0.23972  -0.0845  0.1503  1.0000  -1.6097   0.0000   0.0000   0.0000   0.3347
  18.500   0.8878   0.27520   0.26785  -0.0828  0.1359  1.0000  -1.7169   0.0000   0.0000   0.0000   0.3281
  19.000   0.8688   0.26972   0.26230  -0.0889  0.1323  1.0000  -1.5829   0.0000   0.0000   0.0000   0.3362
  19.500   0.8695   0.27527   0.26788  -0.0929  0.1202  1.0000  -1.5289   0.0000   0.0000   0.0000   0.3401
  20.000   0.8802   0.28595   0.27864  -0.0942  0.1113  1.0000  -1.5488   0.0000   0.0000   0.0000   0.3396


