xflr5 v6.61

 Calculated polar for: RG 14 AIRFOIL

 1 1 Reynolds number fixed          Mach number fixed         

 xtrf =   1.000 (top)        1.000 (bottom)
 Mach =   0.000     Re =     0.060 e 6     Ncrit =   9.000

  alpha     CL        CD       CDp       Cm    Top Xtr Bot Xtr   Cpmin    Chinge    XCp    
 ------- -------- --------- --------- -------- ------- ------- -------- --------- ---------
   0.000  -0.0023   0.01631   0.00686  -0.0090  1.0000  1.0000  -0.4362   0.0000   0.0000   0.0000  -3.5833
   0.500   0.0318   0.01704   0.00744  -0.0076  1.0000  1.0000  -0.3442   0.0000   0.0000   0.0000   0.4861
   1.000   0.0653   0.01802   0.00833  -0.0067  1.0000  1.0000  -0.3765   0.0000   0.0000   0.0000   0.3495
   1.500   0.1493   0.01968   0.00992  -0.0155  0.9778  1.0000  -0.4461   0.0000   0.0000   0.0000   0.3509
   2.000   0.2591   0.02106   0.01140  -0.0277  0.9364  1.0000  -0.5516   0.0000   0.0000   0.0000   0.3543
   2.500   0.3806   0.02170   0.01236  -0.0402  0.8964  1.0000  -0.6986   0.0000   0.0000   0.0000   0.3532
   3.000   0.4679   0.02172   0.01263  -0.0452  0.8466  1.0000  -0.8390   0.0000   0.0000   0.0000   0.3439
   3.500   0.5598   0.02102   0.01226  -0.0487  0.7952  1.0000  -1.0628   0.0000   0.0000   0.0000   0.3341
   4.000   0.6383   0.02015   0.01159  -0.0483  0.7376  1.0000  -1.3048   0.0000   0.0000   0.0000   0.3226
   4.500   0.6843   0.02020   0.01176  -0.0437  0.6642  1.0000  -1.6692   0.0000   0.0000   0.0000   0.3104
   5.000   0.7336   0.02038   0.01235  -0.0392  0.5839  1.0000  -2.0705   0.0000   0.0000   0.0000   0.2995
   5.500   0.7759   0.02109   0.01286  -0.0342  0.4885  1.0000  -2.4424   0.0000   0.0000   0.0000   0.2898
   6.000   0.8116   0.02243   0.01391  -0.0291  0.3808  1.0000  -2.8099   0.0000   0.0000   0.0000   0.2811
   6.500   0.8449   0.02461   0.01570  -0.0245  0.2735  1.0000  -3.1524   0.0000   0.0000   0.0000   0.2737
   7.000   0.8830   0.02844   0.01934  -0.0210  0.1978  1.0000  -3.5413   0.0000   0.0000   0.0000   0.2681
   7.500   0.9200   0.03218   0.02306  -0.0178  0.1462  1.0000  -3.9639   0.0000   0.0000   0.0000   0.2631
   8.000   0.9535   0.03768   0.02870  -0.0147  0.1081  1.0000  -4.2608   0.0000   0.0000   0.0000   0.2588
   8.500   0.9781   0.04380   0.03550  -0.0106  0.0839  1.0000  -4.3460   0.0000   0.0000   0.0000   0.2537
   9.000   0.9869   0.05438   0.04675  -0.0072  0.0782  1.0000  -4.3154   0.0000   0.0000   0.0000   0.2498
   9.500   0.9796   0.06419   0.05733  -0.0037  0.0780  1.0000  -4.2171   0.0000   0.0000   0.0000   0.2459
  10.000   0.9609   0.07189   0.06561  -0.0007  0.0793  1.0000  -4.1102   0.0000   0.0000   0.0000   0.2425
  10.500   0.8973   0.08131   0.07550  -0.0022  0.0838  1.0000  -3.7747   0.0000   0.0000   0.0000   0.2438
  11.000   0.8219   0.10397   0.09810  -0.0206  0.0947  1.0000  -3.0915   0.0000   0.0000   0.0000   0.2662
  11.500   0.8061   0.11805   0.11207  -0.0267  0.1003  1.0000  -2.8569   0.0000   0.0000   0.0000   0.2741
  12.000   0.7613   0.14207   0.13594  -0.0461  0.1858  1.0000  -2.0642   0.0000   0.0000   0.0000   0.3018
  12.500   0.7726   0.15166   0.14553  -0.0481  0.1808  1.0000  -2.0522   0.0000   0.0000   0.0000   0.3031
  13.000   0.8182   0.17474   0.16872  -0.0451  0.1722  1.0000  -2.1974   0.0000   0.0000   0.0000   0.2958
  13.500   0.8031   0.17805   0.17192  -0.0514  0.1705  1.0000  -2.0677   0.0000   0.0000   0.0000   0.3042
  14.000   0.7782   0.17539   0.16911  -0.0590  0.1591  1.0000  -1.9053   0.0000   0.0000   0.0000   0.3153
  14.500   0.7902   0.18273   0.17647  -0.0614  0.1479  1.0000  -1.9062   0.0000   0.0000   0.0000   0.3165
  15.000   0.8391   0.21001   0.20385  -0.0576  0.1365  1.0000  -2.0295   0.0000   0.0000   0.0000   0.3073
  15.500   0.8234   0.20743   0.20116  -0.0650  0.1343  1.0000  -1.8823   0.0000   0.0000   0.0000   0.3169
  16.000   0.8145   0.20741   0.20106  -0.0715  0.1224  1.0000  -1.7655   0.0000   0.0000   0.0000   0.3250
  16.500   0.8533   0.22917   0.22290  -0.0682  0.1042  1.0000  -1.9124   0.0000   0.0000   0.0000   0.3168
  17.000   0.8404   0.22781   0.22145  -0.0757  0.1012  1.0000  -1.7596   0.0000   0.0000   0.0000   0.3261
  17.500   0.8433   0.23404   0.22787  -0.0810  0.0933  1.0000  -1.6525   0.0000   0.0000   0.0000   0.3314
  18.000   0.8534   0.24320   0.23706  -0.0840  0.0869  1.0000  -1.6313   0.0000   0.0000   0.0000   0.3332
  18.500   0.8681   0.25386   0.24778  -0.0854  0.0817  1.0000  -1.6708   0.0000   0.0000   0.0000   0.3326
  19.000   0.9032   0.28293   0.27693  -0.0836  0.0771  1.0000  -1.8011   0.0000   0.0000   0.0000   0.3264
  19.500   0.9015   0.28842   0.28242  -0.0883  0.0767  1.0000  -1.7170   0.0000   0.0000   0.0000   0.3312
  20.000   0.8915   0.29055   0.28454  -0.0936  0.0758  1.0000  -1.6030   0.0000   0.0000   0.0000   0.3374


