xflr5 v6.61

 Calculated polar for: RG 14 AIRFOIL

 1 1 Reynolds number fixed          Mach number fixed         

 xtrf =   1.000 (top)        1.000 (bottom)
 Mach =   0.000     Re =     0.201 e 6     Ncrit =   9.000

  alpha     CL        CD       CDp       Cm    Top Xtr Bot Xtr   Cpmin    Chinge    XCp    
 ------- -------- --------- --------- -------- ------- ------- -------- --------- ---------
   0.000   0.2313   0.00940   0.00429  -0.0498  0.9401  1.0000  -0.4510   0.0000   0.0000   0.0000   0.4648
   0.100   0.2486   0.00933   0.00420  -0.0511  0.9360  1.0000  -0.4663   0.0000   0.0000   0.0000   0.4546
   0.200   0.2670   0.00924   0.00408  -0.0525  0.9322  1.0000  -0.4824   0.0000   0.0000   0.0000   0.4457
   0.300   0.2865   0.00914   0.00397  -0.0541  0.9287  1.0000  -0.4994   0.0000   0.0000   0.0000   0.4379
   0.400   0.3013   0.00906   0.00389  -0.0548  0.9228  1.0000  -0.5140   0.0000   0.0000   0.0000   0.4309
   0.500   0.3114   0.00901   0.00382  -0.0546  0.9142  1.0000  -0.5270   0.0000   0.0000   0.0000   0.4241
   0.600   0.3258   0.00893   0.00374  -0.0551  0.9075  1.0000  -0.5430   0.0000   0.0000   0.0000   0.4181
   0.700   0.3422   0.00884   0.00364  -0.0561  0.9019  1.0000  -0.5606   0.0000   0.0000   0.0000   0.4127
   0.900   0.3655   0.00874   0.00352  -0.0561  0.8860  1.0000  -0.5894   0.0000   0.0000   0.0000   0.4023
   1.000   0.3765   0.00869   0.00345  -0.0560  0.8767  1.0000  -0.6058   0.0000   0.0000   0.0000   0.3973
   1.100   0.3896   0.00863   0.00336  -0.0562  0.8685  1.0000  -0.6242   0.0000   0.0000   0.0000   0.3929
   1.200   0.4020   0.00859   0.00329  -0.0563  0.8605  1.0000  -0.6421   0.0000   0.0000   0.0000   0.3886
   1.300   0.4090   0.00859   0.00334  -0.0555  0.8504  1.0000  -0.6552   0.0000   0.0000   0.0000   0.3841
   1.400   0.4184   0.00858   0.00331  -0.0550  0.8407  1.0000  -0.6713   0.0000   0.0000   0.0000   0.3799
   1.500   0.4291   0.00856   0.00325  -0.0548  0.8316  1.0000  -0.6913   0.0000   0.0000   0.0000   0.3760
   1.600   0.4399   0.00856   0.00320  -0.0545  0.8226  1.0000  -0.7115   0.0000   0.0000   0.0000   0.3723
   1.700   0.4471   0.00857   0.00321  -0.0537  0.8120  1.0000  -0.7280   0.0000   0.0000   0.0000   0.3684
   1.800   0.4557   0.00858   0.00319  -0.0531  0.8010  1.0000  -0.7462   0.0000   0.0000   0.0000   0.3647
   1.900   0.4653   0.00860   0.00315  -0.0527  0.7906  1.0000  -0.7655   0.0000   0.0000   0.0000   0.3613
   2.000   0.4751   0.00863   0.00313  -0.0522  0.7809  1.0000  -0.7849   0.0000   0.0000   0.0000   0.3581
   2.100   0.4827   0.00865   0.00316  -0.0515  0.7706  1.0000  -0.8022   0.0000   0.0000   0.0000   0.3548
   2.200   0.4911   0.00868   0.00316  -0.0509  0.7595  1.0000  -0.8204   0.0000   0.0000   0.0000   0.3516
   2.300   0.5001   0.00872   0.00314  -0.0503  0.7483  1.0000  -0.8394   0.0000   0.0000   0.0000   0.3486
   2.400   0.5094   0.00878   0.00313  -0.0499  0.7373  1.0000  -0.8631   0.0000   0.0000   0.0000   0.3457
   2.500   0.5173   0.00881   0.00317  -0.0492  0.7267  1.0000  -0.8856   0.0000   0.0000   0.0000   0.3428
   2.600   0.5256   0.00886   0.00319  -0.0485  0.7150  1.0000  -0.9104   0.0000   0.0000   0.0000   0.3401
   2.700   0.5343   0.00892   0.00319  -0.0480  0.7031  1.0000  -0.9409   0.0000   0.0000   0.0000   0.3374
   2.800   0.5433   0.00901   0.00319  -0.0474  0.6914  1.0000  -0.9722   0.0000   0.0000   0.0000   0.3348
   2.900   0.5515   0.00904   0.00325  -0.0468  0.6811  1.0000  -1.0020   0.0000   0.0000   0.0000   0.3324
   3.000   0.5599   0.00910   0.00328  -0.0462  0.6688  1.0000  -1.0325   0.0000   0.0000   0.0000   0.3300
   3.100   0.5683   0.00918   0.00329  -0.0456  0.6559  1.0000  -1.0634   0.0000   0.0000   0.0000   0.3276
   3.200   0.5769   0.00930   0.00332  -0.0450  0.6429  1.0000  -1.0949   0.0000   0.0000   0.0000   0.3253
   3.300   0.5855   0.00934   0.00338  -0.0445  0.6326  1.0000  -1.1261   0.0000   0.0000   0.0000   0.3232
   3.400   0.5940   0.00941   0.00343  -0.0439  0.6203  1.0000  -1.1577   0.0000   0.0000   0.0000   0.3211
   3.500   0.6024   0.00951   0.00346  -0.0433  0.6072  1.0000  -1.1894   0.0000   0.0000   0.0000   0.3190
   3.600   0.6108   0.00965   0.00350  -0.0427  0.5931  1.0000  -1.2212   0.0000   0.0000   0.0000   0.3169
   3.700   0.6196   0.00970   0.00358  -0.0422  0.5819  1.0000  -1.2538   0.0000   0.0000   0.0000   0.3151
   3.800   0.6282   0.00979   0.00363  -0.0417  0.5682  1.0000  -1.2913   0.0000   0.0000   0.0000   0.3132
   3.900   0.6366   0.00991   0.00368  -0.0411  0.5540  1.0000  -1.3599   0.0000   0.0000   0.0000   0.3113
   4.000   0.6451   0.01005   0.00375  -0.0405  0.5407  1.0000  -1.4299   0.0000   0.0000   0.0000   0.3095
   4.100   0.6543   0.01012   0.00384  -0.0401  0.5290  1.0000  -1.5031   0.0000   0.0000   0.0000   0.3080
   4.200   0.6630   0.01023   0.00390  -0.0396  0.5146  1.0000  -1.5760   0.0000   0.0000   0.0000   0.3064
   4.300   0.6711   0.01039   0.00397  -0.0390  0.4990  1.0000  -1.6480   0.0000   0.0000   0.0000   0.3046
   4.400   0.6800   0.01051   0.00406  -0.0386  0.4851  1.0000  -1.7232   0.0000   0.0000   0.0000   0.3031
   4.500   0.6890   0.01061   0.00415  -0.0381  0.4702  1.0000  -1.8001   0.0000   0.0000   0.0000   0.3017
   4.600   0.6973   0.01077   0.00422  -0.0376  0.4543  1.0000  -1.8759   0.0000   0.0000   0.0000   0.3002
   4.700   0.7057   0.01095   0.00433  -0.0371  0.4393  1.0000  -1.9523   0.0000   0.0000   0.0000   0.2987
   4.800   0.7151   0.01104   0.00444  -0.0368  0.4265  1.0000  -2.0338   0.0000   0.0000   0.0000   0.2975
   4.900   0.7239   0.01120   0.00483  -0.0363  0.4102  1.0000  -2.0968   0.0000   0.0000   0.0000   0.2961
   5.000   0.7315   0.01144   0.00496  -0.0356  0.3913  1.0000  -2.1654   0.0000   0.0000   0.0000   0.2946
   5.100   0.7409   0.01155   0.00509  -0.0353  0.3762  1.0000  -2.2453   0.0000   0.0000   0.0000   0.2935
   5.200   0.7492   0.01175   0.00521  -0.0348  0.3575  1.0000  -2.3234   0.0000   0.0000   0.0000   0.2922
   5.300   0.7573   0.01197   0.00535  -0.0343  0.3398  1.0000  -2.4025   0.0000   0.0000   0.0000   0.2910
   5.400   0.7665   0.01212   0.00550  -0.0340  0.3241  1.0000  -2.4871   0.0000   0.0000   0.0000   0.2899
   5.500   0.7744   0.01237   0.00564  -0.0335  0.3057  1.0000  -2.5679   0.0000   0.0000   0.0000   0.2887
   5.600   0.7831   0.01256   0.00581  -0.0331  0.2890  1.0000  -2.6529   0.0000   0.0000   0.0000   0.2877
   5.700   0.7916   0.01278   0.00597  -0.0327  0.2705  1.0000  -2.7380   0.0000   0.0000   0.0000   0.2866
   5.800   0.7993   0.01309   0.00615  -0.0322  0.2505  1.0000  -2.8200   0.0000   0.0000   0.0000   0.2855
   5.900   0.8082   0.01328   0.00632  -0.0319  0.2332  1.0000  -2.9091   0.0000   0.0000   0.0000   0.2845
   6.000   0.8154   0.01365   0.00654  -0.0313  0.2123  1.0000  -3.0165   0.0000   0.0000   0.0000   0.2834
   6.100   0.8245   0.01385   0.00673  -0.0310  0.1973  1.0000  -3.1445   0.0000   0.0000   0.0000   0.2825
   6.200   0.8321   0.01420   0.00696  -0.0305  0.1795  1.0000  -3.2630   0.0000   0.0000   0.0000   0.2815
   6.300   0.8406   0.01448   0.00723  -0.0301  0.1651  1.0000  -3.3868   0.0000   0.0000   0.0000   0.2806
   6.400   0.8487   0.01480   0.00747  -0.0297  0.1506  1.0000  -3.5100   0.0000   0.0000   0.0000   0.2796
   6.500   0.8558   0.01527   0.00784  -0.0291  0.1351  1.0000  -3.6216   0.0000   0.0000   0.0000   0.2786
   6.600   0.8648   0.01551   0.00811  -0.0288  0.1252  1.0000  -3.7510   0.0000   0.0000   0.0000   0.2777
   6.700   0.8721   0.01596   0.00845  -0.0283  0.1133  1.0000  -3.8668   0.0000   0.0000   0.0000   0.2767
   6.800   0.8789   0.01650   0.00897  -0.0276  0.1029  1.0000  -3.9704   0.0000   0.0000   0.0000   0.2756
   6.900   0.8879   0.01676   0.00928  -0.0272  0.0963  1.0000  -4.0984   0.0000   0.0000   0.0000   0.2747
   7.000   0.8960   0.01713   0.00963  -0.0267  0.0889  1.0000  -4.2195   0.0000   0.0000   0.0000   0.2739
   7.100   0.9010   0.01796   0.01038  -0.0258  0.0792  1.0000  -4.3019   0.0000   0.0000   0.0000   0.2726
   7.200   0.9100   0.01820   0.01067  -0.0255  0.0740  1.0000  -4.4326   0.0000   0.0000   0.0000   0.2718
   7.300   0.9196   0.01832   0.01081  -0.0253  0.0675  1.0000  -4.5756   0.0000   0.0000   0.0000   0.2713
   7.400   0.9273   0.01867   0.01110  -0.0250  0.0604  1.0000  -4.7022   0.0000   0.0000   0.0000   0.2705
   7.500   0.9321   0.01955   0.01196  -0.0241  0.0525  1.0000  -4.7731   0.0000   0.0000   0.0000   0.2693
   7.600   0.9438   0.01928   0.01170  -0.0243  0.0456  1.0000  -4.9548   0.0000   0.0000   0.0000   0.2692
   7.700   0.9472   0.02025   0.01253  -0.0234  0.0336  1.0000  -4.9986   0.0000   0.0000   0.0000   0.2680
   7.800   0.9579   0.02023   0.01254  -0.0234  0.0282  1.0000  -5.1321   0.0000   0.0000   0.0000   0.2676
   7.900   0.9649   0.02076   0.01308  -0.0228  0.0244  1.0000  -5.2028   0.0000   0.0000   0.0000   0.2666
   8.000   0.9698   0.02156   0.01389  -0.0219  0.0216  1.0000  -5.2490   0.0000   0.0000   0.0000   0.2655
   8.100   0.9706   0.02318   0.01562  -0.0203  0.0192  1.0000  -5.1984   0.0000   0.0000   0.0000   0.2638
   8.200   0.9766   0.02405   0.01656  -0.0196  0.0183  1.0000  -5.2444   0.0000   0.0000   0.0000   0.2628
   8.300   0.9849   0.02440   0.01697  -0.0192  0.0176  1.0000  -5.3426   0.0000   0.0000   0.0000   0.2621
   8.400   0.9925   0.02494   0.01757  -0.0186  0.0167  1.0000  -5.4172   0.0000   0.0000   0.0000   0.2613
   8.500   0.9996   0.02561   0.01832  -0.0180  0.0159  1.0000  -5.4752   0.0000   0.0000   0.0000   0.2604
   8.600   1.0054   0.02667   0.01967  -0.0171  0.0145  1.0000  -5.4218   0.0000   0.0000   0.0000   0.2593
   8.700   1.0118   0.02758   0.02068  -0.0164  0.0140  1.0000  -5.4532   0.0000   0.0000   0.0000   0.2584
   8.800   1.0180   0.02854   0.02174  -0.0158  0.0136  1.0000  -5.4876   0.0000   0.0000   0.0000   0.2576
   8.900   1.0240   0.02953   0.02286  -0.0151  0.0133  1.0000  -5.5220   0.0000   0.0000   0.0000   0.2567
   9.000   1.0296   0.03058   0.02403  -0.0143  0.0130  1.0000  -5.5545   0.0000   0.0000   0.0000   0.2558
   9.100   1.0349   0.03168   0.02527  -0.0136  0.0129  1.0000  -5.5836   0.0000   0.0000   0.0000   0.2549
   9.200   1.0396   0.03284   0.02656  -0.0128  0.0127  1.0000  -5.6087   0.0000   0.0000   0.0000   0.2540
   9.300   1.0438   0.03405   0.02792  -0.0120  0.0126  1.0000  -5.6293   0.0000   0.0000   0.0000   0.2531
   9.400   1.0473   0.03531   0.02934  -0.0111  0.0126  1.0000  -5.6450   0.0000   0.0000   0.0000   0.2521
   9.500   1.0502   0.03662   0.03080  -0.0102  0.0125  1.0000  -5.6555   0.0000   0.0000   0.0000   0.2511
   9.600   1.0522   0.03798   0.03232  -0.0093  0.0125  1.0000  -5.6608   0.0000   0.0000   0.0000   0.2501
   9.700   1.0534   0.03938   0.03387  -0.0083  0.0126  1.0000  -5.6604   0.0000   0.0000   0.0000   0.2491
   9.800   1.0535   0.04082   0.03548  -0.0073  0.0126  1.0000  -5.6527   0.0000   0.0000   0.0000   0.2480
   9.900   1.0528   0.04229   0.03711  -0.0062  0.0126  1.0000  -5.6401   0.0000   0.0000   0.0000   0.2469
  10.000   1.0511   0.04377   0.03874  -0.0051  0.0127  1.0000  -5.6237   0.0000   0.0000   0.0000   0.2458
  10.100   1.0486   0.04526   0.04037  -0.0040  0.0127  1.0000  -5.6041   0.0000   0.0000   0.0000   0.2446
  10.200   1.0445   0.04664   0.04188  -0.0027  0.0128  1.0000  -5.5821   0.0000   0.0000   0.0000   0.2433
  10.300   1.0396   0.04801   0.04336  -0.0014  0.0129  1.0000  -5.5584   0.0000   0.0000   0.0000   0.2419
  10.400   1.0341   0.04938   0.04485  -0.0002  0.0129  1.0000  -5.5330   0.0000   0.0000   0.0000   0.2407
  10.500   1.0280   0.05079   0.04636   0.0009  0.0130  1.0000  -5.5059   0.0000   0.0000   0.0000   0.2395
  10.600   1.0214   0.05223   0.04790   0.0018  0.0130  1.0000  -5.4775   0.0000   0.0000   0.0000   0.2385
  10.700   1.0145   0.05373   0.04950   0.0025  0.0131  1.0000  -5.4475   0.0000   0.0000   0.0000   0.2377
  10.800   1.0074   0.05530   0.05117   0.0029  0.0131  1.0000  -5.4159   0.0000   0.0000   0.0000   0.2371
  10.900   1.0000   0.05696   0.05291   0.0031  0.0132  1.0000  -5.3827   0.0000   0.0000   0.0000   0.2368
  11.000   0.9923   0.05868   0.05473   0.0030  0.0132  1.0000  -5.3480   0.0000   0.0000   0.0000   0.2367
  11.100   0.9845   0.06054   0.05666   0.0027  0.0133  1.0000  -5.3112   0.0000   0.0000   0.0000   0.2369
  11.200   0.9766   0.06253   0.05874   0.0020  0.0133  1.0000  -5.2719   0.0000   0.0000   0.0000   0.2374
  11.300   0.9686   0.06467   0.06096   0.0011  0.0134  1.0000  -5.2300   0.0000   0.0000   0.0000   0.2382
  11.400   0.9605   0.06697   0.06333  -0.0001  0.0134  1.0000  -5.1850   0.0000   0.0000   0.0000   0.2393
  11.500   0.9524   0.06944   0.06587  -0.0017  0.0135  1.0000  -5.1364   0.0000   0.0000   0.0000   0.2408
  11.600   0.9441   0.07209   0.06859  -0.0034  0.0135  1.0000  -5.0836   0.0000   0.0000   0.0000   0.2425
  11.700   0.9357   0.07494   0.07150  -0.0055  0.0136  1.0000  -5.0259   0.0000   0.0000   0.0000   0.2446
  11.800   0.9271   0.07794   0.07456  -0.0078  0.0136  1.0000  -4.9628   0.0000   0.0000   0.0000   0.2470
  11.900   0.9184   0.08120   0.07787  -0.0102  0.0137  1.0000  -4.8922   0.0000   0.0000   0.0000   0.2497
  12.000   0.9096   0.08477   0.08149  -0.0130  0.0138  1.0000  -4.8117   0.0000   0.0000   0.0000   0.2527
  12.100   0.9005   0.08868   0.08545  -0.0159  0.0139  1.0000  -4.7187   0.0000   0.0000   0.0000   0.2560
  12.200   0.8912   0.09296   0.08977  -0.0191  0.0140  1.0000  -4.6098   0.0000   0.0000   0.0000   0.2597
  12.300   0.8816   0.09764   0.09448  -0.0224  0.0141  1.0000  -4.4811   0.0000   0.0000   0.0000   0.2636
  12.400   0.8717   0.10264   0.09950  -0.0256  0.0143  1.0000  -4.3307   0.0000   0.0000   0.0000   0.2677
  12.500   0.8621   0.10775   0.10461  -0.0286  0.0145  1.0000  -4.1657   0.0000   0.0000   0.0000   0.2715
  12.600   0.8534   0.11266   0.10951  -0.0311  0.0148  1.0000  -4.0001   0.0000   0.0000   0.0000   0.2749
  12.700   0.8468   0.11684   0.11368  -0.0332  0.0150  1.0000  -3.8717   0.0000   0.0000   0.0000   0.2777
  12.800   0.8444   0.11956   0.11625  -0.0346  0.0151  1.0000  -3.8538   0.0000   0.0000   0.0000   0.2794
  12.900   0.8390   0.12325   0.11992  -0.0365  0.0153  1.0000  -3.7341   0.0000   0.0000   0.0000   0.2818
  13.000   0.8344   0.12665   0.12331  -0.0381  0.0155  1.0000  -3.6282   0.0000   0.0000   0.0000   0.2841
  13.100   0.8305   0.12984   0.12649  -0.0397  0.0156  1.0000  -3.5322   0.0000   0.0000   0.0000   0.2862
  13.200   0.8271   0.13286   0.12950  -0.0412  0.0158  1.0000  -3.4440   0.0000   0.0000   0.0000   0.2881
  13.300   0.8242   0.13575   0.13238  -0.0426  0.0160  1.0000  -3.3624   0.0000   0.0000   0.0000   0.2900
  13.400   0.8217   0.13853   0.13514  -0.0440  0.0161  1.0000  -3.2863   0.0000   0.0000   0.0000   0.2917
  13.500   0.8196   0.14120   0.13780  -0.0452  0.0163  1.0000  -3.2152   0.0000   0.0000   0.0000   0.2934
  13.600   0.8179   0.14379   0.14038  -0.0465  0.0164  1.0000  -3.1484   0.0000   0.0000   0.0000   0.2950
  13.700   0.8164   0.14631   0.14288  -0.0477  0.0166  1.0000  -3.0853   0.0000   0.0000   0.0000   0.2965
  13.800   0.8152   0.14875   0.14532  -0.0488  0.0168  1.0000  -3.0253   0.0000   0.0000   0.0000   0.2979
  13.900   0.8141   0.15105   0.14761  -0.0499  0.0170  1.0000  -2.9683   0.0000   0.0000   0.0000   0.2993
  14.000   0.8132   0.15327   0.14982  -0.0510  0.0171  1.0000  -2.9133   0.0000   0.0000   0.0000   0.3006
  14.100   0.8123   0.15547   0.15201  -0.0521  0.0174  1.0000  -2.8591   0.0000   0.0000   0.0000   0.3019
  14.200   0.8114   0.15771   0.15424  -0.0531  0.0176  1.0000  -2.8035   0.0000   0.0000   0.0000   0.3031
  14.300   0.8093   0.16030   0.15682  -0.0540  0.0181  1.0000  -2.7267   0.0000   0.0000   0.0000   0.3044
  14.500   0.8084   0.16940   0.16591  -0.0581  0.0272  1.0000  -2.2304   0.0000   0.0000   0.0000   0.3099
  15.000   0.8121   0.18234   0.17885  -0.0598  0.0336  1.0000  -2.1238   0.0000   0.0000   0.0000   0.3111
  15.100   0.8137   0.18429   0.18080  -0.0607  0.0336  1.0000  -2.1073   0.0000   0.0000   0.0000   0.3120
  15.200   0.8154   0.18624   0.18274  -0.0616  0.0336  1.0000  -2.0914   0.0000   0.0000   0.0000   0.3128
  15.300   0.8172   0.18817   0.18468  -0.0624  0.0335  1.0000  -2.0761   0.0000   0.0000   0.0000   0.3136
  15.400   0.8189   0.19010   0.18660  -0.0633  0.0335  1.0000  -2.0612   0.0000   0.0000   0.0000   0.3144
  15.500   0.8207   0.19200   0.18850  -0.0642  0.0335  1.0000  -2.0468   0.0000   0.0000   0.0000   0.3153
  15.600   0.8226   0.19389   0.19038  -0.0651  0.0334  1.0000  -2.0329   0.0000   0.0000   0.0000   0.3161
  15.700   0.8244   0.19574   0.19224  -0.0660  0.0334  1.0000  -2.0194   0.0000   0.0000   0.0000   0.3169
  15.800   0.8263   0.19756   0.19406  -0.0669  0.0333  1.0000  -2.0064   0.0000   0.0000   0.0000   0.3177
  15.900   0.8283   0.19933   0.19582  -0.0679  0.0332  1.0000  -1.9938   0.0000   0.0000   0.0000   0.3185
  16.000   0.8303   0.20100   0.19749  -0.0688  0.0330  1.0000  -1.9817   0.0000   0.0000   0.0000   0.3194
  16.100   0.8325   0.20251   0.19900  -0.0698  0.0328  1.0000  -1.9696   0.0000   0.0000   0.0000   0.3203
  16.200   0.8342   0.20373   0.20022  -0.0712  0.0323  1.0000  -1.9480   0.0000   0.0000   0.0000   0.3216
  16.300   0.8347   0.20504   0.20152  -0.0729  0.0315  1.0000  -1.9100   0.0000   0.0000   0.0000   0.3235
  16.400   0.8359   0.20670   0.20318  -0.0742  0.0307  1.0000  -1.8798   0.0000   0.0000   0.0000   0.3249
  16.500   0.8374   0.20853   0.20500  -0.0754  0.0301  1.0000  -1.8583   0.0000   0.0000   0.0000   0.3260
  16.600   0.8392   0.21040   0.20687  -0.0764  0.0295  1.0000  -1.8417   0.0000   0.0000   0.0000   0.3269
  16.700   0.8410   0.21230   0.20877  -0.0773  0.0289  1.0000  -1.8284   0.0000   0.0000   0.0000   0.3277
  16.800   0.8428   0.21420   0.21067  -0.0782  0.0284  1.0000  -1.8174   0.0000   0.0000   0.0000   0.3285
  17.000   0.8464   0.21822   0.21480  -0.0799  0.0277  1.0000  -1.7761   0.0000   0.0000   0.0000   0.3299
  17.100   0.8483   0.22014   0.21672  -0.0808  0.0272  1.0000  -1.7678   0.0000   0.0000   0.0000   0.3306
  17.200   0.8502   0.22205   0.21863  -0.0816  0.0268  1.0000  -1.7614   0.0000   0.0000   0.0000   0.3312
  17.300   0.8522   0.22396   0.22054  -0.0824  0.0264  1.0000  -1.7564   0.0000   0.0000   0.0000   0.3318
  17.400   0.8542   0.22586   0.22245  -0.0831  0.0260  1.0000  -1.7525   0.0000   0.0000   0.0000   0.3323
  17.500   0.8562   0.22777   0.22436  -0.0839  0.0256  1.0000  -1.7495   0.0000   0.0000   0.0000   0.3329
  17.600   0.8581   0.22968   0.22627  -0.0847  0.0252  1.0000  -1.7475   0.0000   0.0000   0.0000   0.3334
  17.700   0.8601   0.23158   0.22817  -0.0854  0.0248  1.0000  -1.7464   0.0000   0.0000   0.0000   0.3339
  17.800   0.8621   0.23348   0.23008  -0.0862  0.0245  1.0000  -1.7462   0.0000   0.0000   0.0000   0.3344
  17.900   0.8641   0.23538   0.23198  -0.0869  0.0242  1.0000  -1.7468   0.0000   0.0000   0.0000   0.3349
  18.000   0.8661   0.23728   0.23389  -0.0876  0.0238  1.0000  -1.7483   0.0000   0.0000   0.0000   0.3354
  18.100   0.8681   0.23918   0.23579  -0.0883  0.0235  1.0000  -1.7507   0.0000   0.0000   0.0000   0.3358
  18.200   0.8701   0.24108   0.23769  -0.0890  0.0232  1.0000  -1.7540   0.0000   0.0000   0.0000   0.3363
  18.300   0.8721   0.24297   0.23958  -0.0897  0.0229  1.0000  -1.7582   0.0000   0.0000   0.0000   0.3367
  18.400   0.8741   0.24486   0.24148  -0.0904  0.0227  1.0000  -1.7634   0.0000   0.0000   0.0000   0.3371
  18.500   0.8761   0.24675   0.24338  -0.0910  0.0224  1.0000  -1.7696   0.0000   0.0000   0.0000   0.3374
  18.600   0.8781   0.24864   0.24527  -0.0916  0.0221  1.0000  -1.7770   0.0000   0.0000   0.0000   0.3378
  18.700   0.8801   0.25053   0.24716  -0.0923  0.0219  1.0000  -1.7856   0.0000   0.0000   0.0000   0.3381
  18.800   0.8821   0.25242   0.24906  -0.0929  0.0217  1.0000  -1.7955   0.0000   0.0000   0.0000   0.3384
  18.900   0.8841   0.25431   0.25096  -0.0934  0.0214  1.0000  -1.8067   0.0000   0.0000   0.0000   0.3387
  19.000   0.8861   0.25621   0.25286  -0.0940  0.0212  1.0000  -1.8196   0.0000   0.0000   0.0000   0.3389
  19.100   0.8882   0.25811   0.25477  -0.0945  0.0210  1.0000  -1.8343   0.0000   0.0000   0.0000   0.3391
  19.200   0.8903   0.26002   0.25669  -0.0950  0.0208  1.0000  -1.8509   0.0000   0.0000   0.0000   0.3392
  19.300   0.8924   0.26197   0.25864  -0.0954  0.0205  1.0000  -1.8696   0.0000   0.0000   0.0000   0.3393
  19.400   0.8946   0.26395   0.26063  -0.0958  0.0203  1.0000  -1.8907   0.0000   0.0000   0.0000   0.3393
  19.500   0.8969   0.26600   0.26269  -0.0961  0.0201  1.0000  -1.9220   0.0000   0.0000   0.0000   0.3392
  19.600   0.8994   0.26819   0.26489  -0.0963  0.0199  1.0000  -1.9610   0.0000   0.0000   0.0000   0.3390
  19.700   0.9021   0.27063   0.26734  -0.0964  0.0197  1.0000  -2.0021   0.0000   0.0000   0.0000   0.3387
  19.800   0.9033   0.27356   0.27028  -0.0968  0.0194  1.0000  -2.0165   0.0000   0.0000   0.0000   0.3388
  19.900   0.8981   0.28154   0.27822  -0.0974  0.0187  1.0000  -1.8889   0.0000   0.0000   0.0000   0.3403
  20.000   0.8993   0.28372   0.28039  -0.0981  0.0187  1.0000  -1.8905   0.0000   0.0000   0.0000   0.3408
  20.100   0.9004   0.28588   0.28257  -0.0988  0.0187  1.0000  -1.8919   0.0000   0.0000   0.0000   0.3413
  20.200   0.9014   0.28805   0.28474  -0.0995  0.0186  1.0000  -1.8931   0.0000   0.0000   0.0000   0.3418
  20.300   0.9024   0.29020   0.28690  -0.1002  0.0186  1.0000  -1.8941   0.0000   0.0000   0.0000   0.3423
  20.400   0.9033   0.29235   0.28905  -0.1009  0.0186  1.0000  -1.8948   0.0000   0.0000   0.0000   0.3428
  20.500   0.9042   0.29449   0.29120  -0.1016  0.0186  1.0000  -1.8952   0.0000   0.0000   0.0000   0.3434
  20.600   0.9049   0.29661   0.29333  -0.1022  0.0186  1.0000  -1.8951   0.0000   0.0000   0.0000   0.3439
  20.700   0.9055   0.29873   0.29545  -0.1029  0.0186  1.0000  -1.8947   0.0000   0.0000   0.0000   0.3444
  20.800   0.9061   0.30082   0.29755  -0.1035  0.0186  1.0000  -1.8939   0.0000   0.0000   0.0000   0.3449
  20.900   0.9065   0.30291   0.29964  -0.1042  0.0186  1.0000  -1.8927   0.0000   0.0000   0.0000   0.3454
  21.000   0.9069   0.30497   0.30171  -0.1048  0.0186  1.0000  -1.8911   0.0000   0.0000   0.0000   0.3460
  21.100   0.9071   0.30701   0.30376  -0.1054  0.0186  1.0000  -1.8889   0.0000   0.0000   0.0000   0.3465
  21.200   0.9071   0.30902   0.30578  -0.1060  0.0186  1.0000  -1.8861   0.0000   0.0000   0.0000   0.3470
  21.300   0.9070   0.31100   0.30777  -0.1066  0.0186  1.0000  -1.8827   0.0000   0.0000   0.0000   0.3475
  21.400   0.9067   0.31293   0.30971  -0.1071  0.0186  1.0000  -1.8785   0.0000   0.0000   0.0000   0.3481
  21.500   0.9062   0.31482   0.31161  -0.1076  0.0185  1.0000  -1.8733   0.0000   0.0000   0.0000   0.3486
  21.600   0.9054   0.31664   0.31344  -0.1081  0.0185  1.0000  -1.8672   0.0000   0.0000   0.0000   0.3492
  21.700   0.9044   0.31840   0.31521  -0.1086  0.0185  1.0000  -1.8600   0.0000   0.0000   0.0000   0.3497
  21.800   0.9029   0.32005   0.31688  -0.1090  0.0185  1.0000  -1.8515   0.0000   0.0000   0.0000   0.3503
  21.900   0.9010   0.32159   0.31843  -0.1094  0.0185  1.0000  -1.8414   0.0000   0.0000   0.0000   0.3509
  22.000   0.8985   0.32295   0.31980  -0.1097  0.0185  1.0000  -1.8292   0.0000   0.0000   0.0000   0.3515
  22.100   0.8645   0.31607   0.31302  -0.1065  0.0185  1.0000  -1.7316   0.0000   0.0000   0.0000   0.3530
  22.200   0.8547   0.31462   0.31161  -0.1059  0.0185  1.0000  -1.6995   0.0000   0.0000   0.0000   0.3539
  22.300   0.8483   0.31404   0.31104  -0.1057  0.0185  1.0000  -1.6764   0.0000   0.0000   0.0000   0.3546
  22.400   0.8433   0.31375   0.31078  -0.1057  0.0185  1.0000  -1.6565   0.0000   0.0000   0.0000   0.3553
  22.500   0.8392   0.31365   0.31069  -0.1058  0.0185  1.0000  -1.6382   0.0000   0.0000   0.0000   0.3560
  22.600   0.8356   0.31365   0.31072  -0.1059  0.0185  1.0000  -1.6210   0.0000   0.0000   0.0000   0.3566
  22.700   0.8324   0.31374   0.31082  -0.1061  0.0184  1.0000  -1.6043   0.0000   0.0000   0.0000   0.3573
  22.800   0.8295   0.31388   0.31098  -0.1063  0.0184  1.0000  -1.5878   0.0000   0.0000   0.0000   0.3579
  22.900   0.8269   0.31406   0.31118  -0.1065  0.0184  1.0000  -1.5714   0.0000   0.0000   0.0000   0.3585
  23.000   0.8245   0.31428   0.31140  -0.1068  0.0184  1.0000  -1.5548   0.0000   0.0000   0.0000   0.3592
  23.100   0.8222   0.31449   0.31162  -0.1071  0.0184  1.0000  -1.5373   0.0000   0.0000   0.0000   0.3598
  23.200   0.8200   0.31469   0.31184  -0.1074  0.0183  1.0000  -1.5191   0.0000   0.0000   0.0000   0.3605
  23.300   0.8179   0.31484   0.31201  -0.1078  0.0183  1.0000  -1.4997   0.0000   0.0000   0.0000   0.3612
  23.400   0.8156   0.31488   0.31205  -0.1082  0.0182  1.0000  -1.4757   0.0000   0.0000   0.0000   0.3620
  23.500   0.8134   0.31486   0.31205  -0.1088  0.0181  1.0000  -1.4500   0.0000   0.0000   0.0000   0.3630
  23.600   0.8116   0.31485   0.31204  -0.1094  0.0180  1.0000  -1.4224   0.0000   0.0000   0.0000   0.3640
  23.700   0.8103   0.31493   0.31213  -0.1102  0.0178  1.0000  -1.3921   0.0000   0.0000   0.0000   0.3651
  23.800   0.8102   0.31531   0.31251  -0.1112  0.0173  1.0000  -1.3570   0.0000   0.0000   0.0000   0.3662
  23.900   0.8108   0.31610   0.31330  -0.1121  0.0165  1.0000  -1.3228   0.0000   0.0000   0.0000   0.3671
  24.000   0.8106   0.31683   0.31405  -0.1126  0.0157  1.0000  -1.3005   0.0000   0.0000   0.0000   0.3677
  24.100   0.8099   0.31746   0.31468  -0.1130  0.0152  1.0000  -1.2837   0.0000   0.0000   0.0000   0.3682
  24.200   0.8091   0.31806   0.31529  -0.1134  0.0148  1.0000  -1.2690   0.0000   0.0000   0.0000   0.3687
  24.300   0.8084   0.31864   0.31589  -0.1138  0.0144  1.0000  -1.2560   0.0000   0.0000   0.0000   0.3692
  24.400   0.8076   0.31922   0.31648  -0.1141  0.0140  1.0000  -1.2442   0.0000   0.0000   0.0000   0.3697
  24.500   0.8069   0.31979   0.31706  -0.1145  0.0136  1.0000  -1.2335   0.0000   0.0000   0.0000   0.3701
  24.600   0.8062   0.32036   0.31764  -0.1149  0.0133  1.0000  -1.2236   0.0000   0.0000   0.0000   0.3706
  24.700   0.8056   0.32093   0.31822  -0.1152  0.0130  1.0000  -1.2145   0.0000   0.0000   0.0000   0.3710
  24.800   0.8050   0.32150   0.31880  -0.1156  0.0127  1.0000  -1.2061   0.0000   0.0000   0.0000   0.3714
  24.900   0.8044   0.32207   0.31938  -0.1159  0.0124  1.0000  -1.1984   0.0000   0.0000   0.0000   0.3719
  25.000   0.8038   0.32264   0.31996  -0.1163  0.0121  1.0000  -1.1914   0.0000   0.0000   0.0000   0.3723
  25.100   0.8033   0.32321   0.32054  -0.1167  0.0119  1.0000  -1.1850   0.0000   0.0000   0.0000   0.3727
  25.200   0.8029   0.32378   0.32111  -0.1170  0.0117  1.0000  -1.1791   0.0000   0.0000   0.0000   0.3731
  25.300   0.8024   0.32433   0.32174  -0.1174  0.0115  1.0000  -1.1743   0.0000   0.0000   0.0000   0.3736
  25.400   0.8020   0.32490   0.32232  -0.1178  0.0113  1.0000  -1.1696   0.0000   0.0000   0.0000   0.3740
  25.500   0.8016   0.32547   0.32290  -0.1182  0.0111  1.0000  -1.1654   0.0000   0.0000   0.0000   0.3744
  25.600   0.8013   0.32604   0.32347  -0.1186  0.0109  1.0000  -1.1618   0.0000   0.0000   0.0000   0.3748
  25.700   0.8009   0.32660   0.32405  -0.1189  0.0107  1.0000  -1.1587   0.0000   0.0000   0.0000   0.3752
  25.800   0.8006   0.32716   0.32462  -0.1193  0.0105  1.0000  -1.1561   0.0000   0.0000   0.0000   0.3755
  25.900   0.8003   0.32773   0.32519  -0.1197  0.0104  1.0000  -1.1542   0.0000   0.0000   0.0000   0.3759
  26.000   0.8000   0.32828   0.32576  -0.1201  0.0102  1.0000  -1.1528   0.0000   0.0000   0.0000   0.3763
  26.100   0.7998   0.32884   0.32633  -0.1204  0.0101  1.0000  -1.1520   0.0000   0.0000   0.0000   0.3767
  26.200   0.7995   0.32939   0.32689  -0.1208  0.0099  1.0000  -1.1518   0.0000   0.0000   0.0000   0.3770
  26.300   0.7993   0.32994   0.32745  -0.1212  0.0098  1.0000  -1.1522   0.0000   0.0000   0.0000   0.3774
  26.400   0.7991   0.33049   0.32800  -0.1216  0.0097  1.0000  -1.1533   0.0000   0.0000   0.0000   0.3777
  26.500   0.7989   0.33103   0.32855  -0.1219  0.0096  1.0000  -1.1549   0.0000   0.0000   0.0000   0.3781
  26.600   0.7987   0.33157   0.32910  -0.1223  0.0094  1.0000  -1.1573   0.0000   0.0000   0.0000   0.3784
  26.700   0.7985   0.33210   0.32964  -0.1227  0.0093  1.0000  -1.1604   0.0000   0.0000   0.0000   0.3787
  26.800   0.7983   0.33263   0.33018  -0.1230  0.0092  1.0000  -1.1641   0.0000   0.0000   0.0000   0.3790
  26.900   0.7981   0.33315   0.33071  -0.1234  0.0091  1.0000  -1.1686   0.0000   0.0000   0.0000   0.3793
  27.000   0.7980   0.33367   0.33124  -0.1237  0.0090  1.0000  -1.1739   0.0000   0.0000   0.0000   0.3796
  27.100   0.7978   0.33419   0.33177  -0.1240  0.0089  1.0000  -1.1799   0.0000   0.0000   0.0000   0.3799
  27.200   0.7976   0.33471   0.33230  -0.1243  0.0088  1.0000  -1.1869   0.0000   0.0000   0.0000   0.3801
  27.300   0.7975   0.33524   0.33284  -0.1246  0.0087  1.0000  -1.1945   0.0000   0.0000   0.0000   0.3803
  27.400   0.7973   0.33579   0.33340  -0.1249  0.0086  1.0000  -1.2028   0.0000   0.0000   0.0000   0.3805
  27.500   0.7972   0.33637   0.33399  -0.1251  0.0085  1.0000  -1.2116   0.0000   0.0000   0.0000   0.3807
  27.600   0.7970   0.33701   0.33465  -0.1253  0.0084  1.0000  -1.2205   0.0000   0.0000   0.0000   0.3808
  27.700   0.7969   0.33778   0.33542  -0.1255  0.0083  1.0000  -1.2288   0.0000   0.0000   0.0000   0.3808
  27.800   0.7969   0.33882   0.33648  -0.1255  0.0082  1.0000  -1.2343   0.0000   0.0000   0.0000   0.3807
  27.900   0.7959   0.34085   0.33852  -0.1254  0.0080  1.0000  -1.2008   0.0000   0.0000   0.0000   0.3808
  28.700   0.7939   0.34768   0.34536  -0.1287  0.0078  1.0000  -1.0812   0.0000   0.0000   0.0000   0.3841
  28.800   0.7938   0.34833   0.34602  -0.1292  0.0078  1.0000  -1.0739   0.0000   0.0000   0.0000   0.3845
  28.900   0.7938   0.34898   0.34668  -0.1296  0.0078  1.0000  -1.0667   0.0000   0.0000   0.0000   0.3849
  29.000   0.7937   0.34963   0.34733  -0.1301  0.0078  1.0000  -1.0593   0.0000   0.0000   0.0000   0.3853
  29.100   0.7936   0.35027   0.34798  -0.1306  0.0078  1.0000  -1.0521   0.0000   0.0000   0.0000   0.3857
  29.200   0.7936   0.35091   0.34864  -0.1310  0.0078  1.0000  -1.0450   0.0000   0.0000   0.0000   0.3861
  29.300   0.7935   0.35156   0.34929  -0.1315  0.0078  1.0000  -1.0381   0.0000   0.0000   0.0000   0.3865
  29.400   0.7934   0.35220   0.34994  -0.1319  0.0078  1.0000  -1.0312   0.0000   0.0000   0.0000   0.3869
  29.500   0.7934   0.35285   0.35059  -0.1324  0.0078  1.0000  -1.0245   0.0000   0.0000   0.0000   0.3873
  29.600   0.7933   0.35349   0.35125  -0.1329  0.0078  1.0000  -1.0178   0.0000   0.0000   0.0000   0.3877
  29.700   0.7933   0.35414   0.35190  -0.1333  0.0078  1.0000  -1.0113   0.0000   0.0000   0.0000   0.3881
  29.800   0.7932   0.35478   0.35255  -0.1338  0.0078  1.0000  -1.0049   0.0000   0.0000   0.0000   0.3885
  29.900   0.7932   0.35542   0.35320  -0.1343  0.0078  1.0000  -0.9985   0.0000   0.0000   0.0000   0.3889
  30.000   0.7932   0.35607   0.35386  -0.1347  0.0078  1.0000  -0.9923   0.0000   0.0000   0.0000   0.3893


