xflr5 v6.61

 Calculated polar for: RG 14 AIRFOIL

 1 1 Reynolds number fixed          Mach number fixed         

 xtrf =   1.000 (top)        1.000 (bottom)
 Mach =   0.000     Re =     0.001 e 6     Ncrit =   9.000

  alpha     CL        CD       CDp       Cm    Top Xtr Bot Xtr   Cpmin    Chinge    XCp    
 ------- -------- --------- --------- -------- ------- ------- -------- --------- ---------
   0.000   0.0304   0.16210   0.03497  -0.0166  1.0000  1.0000  -0.3422   0.0000   0.0000   0.0000   0.7979
   0.500   0.0646   0.16214   0.03432  -0.0157  1.0000  1.0000  -0.3683   0.0000   0.0000   0.0000   0.4924
   1.000   0.0983   0.16235   0.03418  -0.0148  1.0000  1.0000  -0.3973   0.0000   0.0000   0.0000   0.3992
   1.500   0.1311   0.16272   0.03453  -0.0140  1.0000  1.0000  -0.4269   0.0000   0.0000   0.0000   0.3544
   2.000   0.1631   0.16326   0.03501  -0.0131  1.0000  1.0000  -0.4610   0.0000   0.0000   0.0000   0.3280
   2.500   0.1943   0.16395   0.03623  -0.0122  1.0000  1.0000  -0.4952   0.0000   0.0000   0.0000   0.3100
   3.000   0.2246   0.16479   0.03786  -0.0113  1.0000  1.0000  -0.5341   0.0000   0.0000   0.0000   0.2970
   3.500   0.2531   0.16575   0.04059  -0.0105  1.0000  1.0000  -0.5729   0.0000   0.0000   0.0000   0.2879
   4.000   0.2802   0.16687   0.04291  -0.0096  1.0000  1.0000  -0.6165   0.0000   0.0000   0.0000   0.2807
   5.000   0.3315   0.16978   0.04890  -0.0081  1.0000  1.0000  -0.7090   0.0000   0.0000   0.0000   0.2700
   5.500   0.3563   0.17185   0.05260  -0.0075  1.0000  1.0000  -0.7593   0.0000   0.0000   0.0000   0.2664
   6.000   0.3803   0.17424   0.05667  -0.0070  1.0000  1.0000  -0.8155   0.0000   0.0000   0.0000   0.2635
   6.500   0.4031   0.17693   0.06110  -0.0067  1.0000  1.0000  -0.8758   0.0000   0.0000   0.0000   0.2613
   7.000   0.4249   0.17994   0.06587  -0.0065  1.0000  1.0000  -0.9332   0.0000   0.0000   0.0000   0.2596
   7.500   0.4457   0.18330   0.07099  -0.0066  1.0000  1.0000  -0.9999   0.0000   0.0000   0.0000   0.2586
   8.000   0.4653   0.18697   0.07640  -0.0068  1.0000  1.0000  -1.0686   0.0000   0.0000   0.0000   0.2581
   8.500   0.4837   0.19095   0.08207  -0.0072  1.0000  1.0000  -1.1323   0.0000   0.0000   0.0000   0.2580
   9.000   0.5011   0.19521   0.08796  -0.0079  1.0000  1.0000  -1.1938   0.0000   0.0000   0.0000   0.2583
   9.500   0.5174   0.19975   0.09402  -0.0087  1.0000  1.0000  -1.2713   0.0000   0.0000   0.0000   0.2591
  10.000   0.5342   0.20403   0.10146  -0.0096  1.0000  1.0000  -1.3228   0.0000   0.0000   0.0000   0.2601
  10.500   0.5486   0.20899   0.10787  -0.0110  1.0000  1.0000  -1.3867   0.0000   0.0000   0.0000   0.2617
  11.000   0.5624   0.21421   0.11450  -0.0127  1.0000  1.0000  -1.4450   0.0000   0.0000   0.0000   0.2637
  11.500   0.5755   0.21969   0.12135  -0.0145  1.0000  1.0000  -1.4978   0.0000   0.0000   0.0000   0.2660
  12.000   0.5881   0.22542   0.12839  -0.0166  1.0000  1.0000  -1.5448   0.0000   0.0000   0.0000   0.2685
  12.500   0.6003   0.23137   0.13562  -0.0188  1.0000  1.0000  -1.5862   0.0000   0.0000   0.0000   0.2711
  13.000   0.6120   0.23755   0.14301  -0.0212  1.0000  1.0000  -1.6220   0.0000   0.0000   0.0000   0.2739
  13.500   0.6234   0.24391   0.15056  -0.0237  1.0000  1.0000  -1.6598   0.0000   0.0000   0.0000   0.2768
  14.000   0.6346   0.25047   0.15825  -0.0264  1.0000  1.0000  -1.7188   0.0000   0.0000   0.0000   0.2798
  14.500   0.6454   0.25721   0.16609  -0.0291  1.0000  1.0000  -1.7718   0.0000   0.0000   0.0000   0.2829
  15.000   0.6558   0.26413   0.17408  -0.0320  1.0000  1.0000  -1.8188   0.0000   0.0000   0.0000   0.2859
  15.500   0.6658   0.27122   0.18223  -0.0348  1.0000  1.0000  -1.8596   0.0000   0.0000   0.0000   0.2890
  16.000   0.6754   0.27848   0.19051  -0.0377  1.0000  1.0000  -1.8945   0.0000   0.0000   0.0000   0.2920
  16.500   0.6846   0.28587   0.19891  -0.0406  1.0000  1.0000  -1.9234   0.0000   0.0000   0.0000   0.2949
  17.000   0.6933   0.29338   0.20739  -0.0435  1.0000  1.0000  -1.9465   0.0000   0.0000   0.0000   0.2978
  17.500   0.7020   0.30113   0.21869  -0.0461  1.0000  1.0000  -1.9740   0.0000   0.0000   0.0000   0.3003
  18.000   0.7095   0.30867   0.22720  -0.0490  1.0000  1.0000  -1.9836   0.0000   0.0000   0.0000   0.3031
  18.500   0.7163   0.31620   0.23574  -0.0517  1.0000  1.0000  -1.9884   0.0000   0.0000   0.0000   0.3058
  19.000   0.7224   0.32370   0.24426  -0.0545  1.0000  1.0000  -1.9884   0.0000   0.0000   0.0000   0.3084
  19.500   0.7277   0.33108   0.25270  -0.0571  1.0000  1.0000  -1.9834   0.0000   0.0000   0.0000   0.3109
  20.000   0.7321   0.33831   0.26099  -0.0596  1.0000  1.0000  -1.9735   0.0000   0.0000   0.0000   0.3134


