xflr5 v6.61

 Calculated polar for: RG-15 8.9%

 1 1 Reynolds number fixed          Mach number fixed         

 xtrf =   1.000 (top)        1.000 (bottom)
 Mach =   0.000     Re =     0.021 e 6     Ncrit =   9.000

  alpha     CL        CD       CDp       Cm    Top Xtr Bot Xtr   Cpmin    Chinge    XCp    
 ------- -------- --------- --------- -------- ------- ------- -------- --------- ---------
   0.000   0.0133   0.02565   0.00965  -0.0170  1.0000  1.0000  -0.4583   0.0000   0.0000   0.0000   1.5283
   0.100   0.0208   0.02576   0.00969  -0.0168  1.0000  1.0000  -0.4169   0.0000   0.0000   0.0000   1.0565
   0.200   0.0283   0.02587   0.00974  -0.0166  1.0000  1.0000  -0.3906   0.0000   0.0000   0.0000   0.8352
   0.300   0.0358   0.02599   0.00981  -0.0165  1.0000  1.0000  -0.3717   0.0000   0.0000   0.0000   0.7069
   0.400   0.0433   0.02611   0.00989  -0.0163  1.0000  1.0000  -0.3559   0.0000   0.0000   0.0000   0.6235
   0.500   0.0508   0.02625   0.00998  -0.0161  1.0000  1.0000  -0.3624   0.0000   0.0000   0.0000   0.5649
   0.600   0.0583   0.02639   0.01009  -0.0160  1.0000  1.0000  -0.3689   0.0000   0.0000   0.0000   0.5216
   0.700   0.0657   0.02655   0.01021  -0.0159  1.0000  1.0000  -0.3753   0.0000   0.0000   0.0000   0.4884
   0.800   0.0731   0.02671   0.01034  -0.0157  1.0000  1.0000  -0.3817   0.0000   0.0000   0.0000   0.4622
   0.900   0.0805   0.02688   0.01049  -0.0156  1.0000  1.0000  -0.3881   0.0000   0.0000   0.0000   0.4410
   1.000   0.0879   0.02705   0.01066  -0.0155  1.0000  1.0000  -0.3946   0.0000   0.0000   0.0000   0.4235
   1.100   0.0951   0.02724   0.01084  -0.0154  1.0000  1.0000  -0.4021   0.0000   0.0000   0.0000   0.4089
   1.200   0.1024   0.02744   0.01103  -0.0153  1.0000  1.0000  -0.4095   0.0000   0.0000   0.0000   0.3966
   1.300   0.1096   0.02764   0.01124  -0.0153  1.0000  1.0000  -0.4169   0.0000   0.0000   0.0000   0.3860
   1.400   0.1167   0.02786   0.01146  -0.0152  1.0000  1.0000  -0.4242   0.0000   0.0000   0.0000   0.3769
   1.500   0.1238   0.02809   0.01166  -0.0151  1.0000  1.0000  -0.4314   0.0000   0.0000   0.0000   0.3689
   1.600   0.1310   0.02832   0.01159  -0.0151  1.0000  1.0000  -0.4385   0.0000   0.0000   0.0000   0.3616
   1.700   0.1380   0.02857   0.01184  -0.0150  1.0000  1.0000  -0.4455   0.0000   0.0000   0.0000   0.3554
   1.800   0.1449   0.02883   0.01209  -0.0150  1.0000  1.0000  -0.4525   0.0000   0.0000   0.0000   0.3499
   1.900   0.1517   0.02911   0.01235  -0.0150  1.0000  1.0000  -0.4606   0.0000   0.0000   0.0000   0.3451
   2.000   0.1585   0.02939   0.01263  -0.0150  1.0000  1.0000  -0.4689   0.0000   0.0000   0.0000   0.3408
   2.100   0.1653   0.02969   0.01292  -0.0150  1.0000  1.0000  -0.4771   0.0000   0.0000   0.0000   0.3369
   2.200   0.1719   0.02999   0.01322  -0.0150  1.0000  1.0000  -0.4851   0.0000   0.0000   0.0000   0.3334
   2.300   0.1785   0.03032   0.01354  -0.0150  1.0000  1.0000  -0.4931   0.0000   0.0000   0.0000   0.3303
   2.400   0.1850   0.03065   0.01387  -0.0150  1.0000  1.0000  -0.5009   0.0000   0.0000   0.0000   0.3276
   2.600   0.1979   0.03134   0.01476  -0.0152  1.0000  1.0000  -0.5162   0.0000   0.0000   0.0000   0.3227
   2.700   0.2041   0.03171   0.01513  -0.0153  1.0000  1.0000  -0.5254   0.0000   0.0000   0.0000   0.3208
   2.800   0.2103   0.03210   0.01551  -0.0154  1.0000  1.0000  -0.5346   0.0000   0.0000   0.0000   0.3190
   2.900   0.2163   0.03251   0.01592  -0.0155  1.0000  1.0000  -0.5436   0.0000   0.0000   0.0000   0.3174
   3.000   0.2223   0.03293   0.01634  -0.0156  1.0000  1.0000  -0.5524   0.0000   0.0000   0.0000   0.3160
   3.100   0.2282   0.03337   0.01678  -0.0157  1.0000  1.0000  -0.5610   0.0000   0.0000   0.0000   0.3148
   3.200   0.2340   0.03383   0.01724  -0.0159  1.0000  1.0000  -0.5695   0.0000   0.0000   0.0000   0.3137
   3.300   0.2397   0.03429   0.01773  -0.0161  1.0000  1.0000  -0.5778   0.0000   0.0000   0.0000   0.3128
   3.400   0.2453   0.03478   0.01823  -0.0163  1.0000  1.0000  -0.5859   0.0000   0.0000   0.0000   0.3120
   3.500   0.2509   0.03528   0.01875  -0.0165  1.0000  1.0000  -0.5941   0.0000   0.0000   0.0000   0.3113
   3.600   0.2563   0.03580   0.01929  -0.0167  1.0000  1.0000  -0.6041   0.0000   0.0000   0.0000   0.3106
   3.700   0.2617   0.03634   0.01985  -0.0169  1.0000  1.0000  -0.6139   0.0000   0.0000   0.0000   0.3101
   3.800   0.2670   0.03689   0.02043  -0.0172  1.0000  1.0000  -0.6236   0.0000   0.0000   0.0000   0.3097
   3.900   0.2722   0.03746   0.02103  -0.0175  1.0000  1.0000  -0.6330   0.0000   0.0000   0.0000   0.3094
   4.000   0.2773   0.03805   0.02165  -0.0177  1.0000  1.0000  -0.6422   0.0000   0.0000   0.0000   0.3092
   4.100   0.2823   0.03866   0.02230  -0.0180  1.0000  1.0000  -0.6512   0.0000   0.0000   0.0000   0.3090
   4.200   0.2873   0.03929   0.02296  -0.0183  1.0000  1.0000  -0.6599   0.0000   0.0000   0.0000   0.3089
   4.300   0.2922   0.03994   0.02364  -0.0187  1.0000  1.0000  -0.6685   0.0000   0.0000   0.0000   0.3089
   4.400   0.2970   0.04060   0.02435  -0.0190  1.0000  1.0000  -0.6768   0.0000   0.0000   0.0000   0.3090
   4.500   0.3018   0.04129   0.02507  -0.0194  1.0000  1.0000  -0.6849   0.0000   0.0000   0.0000   0.3091
   4.600   0.3064   0.04199   0.02582  -0.0198  1.0000  1.0000  -0.6940   0.0000   0.0000   0.0000   0.3093
   4.700   0.3110   0.04271   0.02658  -0.0202  1.0000  1.0000  -0.7047   0.0000   0.0000   0.0000   0.3095
   4.800   0.3155   0.04345   0.02737  -0.0206  1.0000  1.0000  -0.7152   0.0000   0.0000   0.0000   0.3098
   4.900   0.3200   0.04421   0.02817  -0.0210  1.0000  1.0000  -0.7254   0.0000   0.0000   0.0000   0.3101
   5.000   0.3243   0.04499   0.02900  -0.0214  1.0000  1.0000  -0.7354   0.0000   0.0000   0.0000   0.3105
   5.100   0.3286   0.04578   0.02984  -0.0219  1.0000  1.0000  -0.7450   0.0000   0.0000   0.0000   0.3109
   5.200   0.3329   0.04660   0.03070  -0.0223  1.0000  1.0000  -0.7544   0.0000   0.0000   0.0000   0.3114
   5.300   0.3370   0.04743   0.03158  -0.0228  1.0000  1.0000  -0.7635   0.0000   0.0000   0.0000   0.3119
   5.400   0.3412   0.04827   0.03248  -0.0233  1.0000  1.0000  -0.7755   0.0000   0.0000   0.0000   0.3125
   5.500   0.3452   0.04913   0.03340  -0.0238  1.0000  1.0000  -0.7874   0.0000   0.0000   0.0000   0.3130
   5.600   0.3709   0.05111   0.03552  -0.0287  0.9868  1.0000  -0.8296   0.0000   0.0000   0.0000   0.3215
   5.700   0.3957   0.05301   0.03757  -0.0334  0.9705  1.0000  -0.8703   0.0000   0.0000   0.0000   0.3285
   5.800   0.4227   0.05497   0.03971  -0.0382  0.9496  1.0000  -0.9150   0.0000   0.0000   0.0000   0.3347
   5.900   0.4522   0.05694   0.04188  -0.0431  0.9237  1.0000  -0.9640   0.0000   0.0000   0.0000   0.3396
   6.000   0.4848   0.05898   0.04414  -0.0481  0.8953  1.0000  -1.0190   0.0000   0.0000   0.0000   0.3435
   6.100   0.4876   0.05973   0.04498  -0.0482  0.8839  1.0000  -1.0278   0.0000   0.0000   0.0000   0.3430
   6.200   0.5226   0.06222   0.04770  -0.0534  0.8628  1.0000  -1.0862   0.0000   0.0000   0.0000   0.3464
   6.300   0.5192   0.06281   0.04833  -0.0525  0.8550  1.0000  -1.0848   0.0000   0.0000   0.0000   0.3453
   6.400   0.5567   0.06499   0.05078  -0.0570  0.8233  1.0000  -1.1499   0.0000   0.0000   0.0000   0.3468
   6.500   0.5531   0.06554   0.05137  -0.0560  0.8125  1.0000  -1.1542   0.0000   0.0000   0.0000   0.3455
   6.600   0.5898   0.06755   0.05428  -0.0595  0.7799  1.0000  -1.3342   0.0000   0.0000   0.0000   0.3453
   6.700   0.5865   0.06849   0.05525  -0.0590  0.7737  1.0000  -1.3369   0.0000   0.0000   0.0000   0.3448
   6.800   0.5884   0.06962   0.05646  -0.0591  0.7652  1.0000  -1.3557   0.0000   0.0000   0.0000   0.3445
   6.900   0.6231   0.07169   0.05883  -0.0619  0.7353  1.0000  -1.4838   0.0000   0.0000   0.0000   0.3436
   7.000   0.6182   0.07250   0.05966  -0.0610  0.7264  1.0000  -1.4806   0.0000   0.0000   0.0000   0.3429
   7.100   0.6536   0.07386   0.06133  -0.0624  0.6874  1.0000  -1.6201   0.0000   0.0000   0.0000   0.3397
   7.200   0.6488   0.07494   0.06242  -0.0618  0.6804  1.0000  -1.6141   0.0000   0.0000   0.0000   0.3394
   7.300   0.6488   0.07625   0.06378  -0.0618  0.6733  1.0000  -1.6228   0.0000   0.0000   0.0000   0.3393
   7.400   0.6896   0.07846   0.06633  -0.0637  0.6430  1.0000  -1.7742   0.0000   0.0000   0.0000   0.3365
   7.500   0.6814   0.07965   0.06750  -0.0631  0.6390  1.0000  -1.7535   0.0000   0.0000   0.0000   0.3367
   7.600   0.6755   0.08081   0.06865  -0.0626  0.6331  1.0000  -1.7412   0.0000   0.0000   0.0000   0.3367
   7.700   0.7105   0.08154   0.06969  -0.0617  0.5893  1.0000  -1.8886   0.0000   0.0000   0.0000   0.3309
   7.800   0.7040   0.08291   0.07103  -0.0614  0.5844  1.0000  -1.8712   0.0000   0.0000   0.0000   0.3313
   7.900   0.7005   0.08441   0.07253  -0.0614  0.5796  1.0000  -1.8628   0.0000   0.0000   0.0000   0.3316
   8.000   0.6990   0.08602   0.07417  -0.0616  0.5753  1.0000  -1.8602   0.0000   0.0000   0.0000   0.3319
   8.100   0.6995   0.08769   0.07586  -0.0619  0.5706  1.0000  -1.8636   0.0000   0.0000   0.0000   0.3322
   8.200   0.7034   0.08945   0.07769  -0.0622  0.5649  1.0000  -1.8780   0.0000   0.0000   0.0000   0.3322
   8.300   0.7305   0.09159   0.08005  -0.0620  0.5404  1.0000  -1.9805   0.0000   0.0000   0.0000   0.3286
   8.400   0.7244   0.09309   0.08151  -0.0620  0.5377  1.0000  -1.9606   0.0000   0.0000   0.0000   0.3293
   8.500   0.7191   0.09450   0.08291  -0.0620  0.5339  1.0000  -1.9444   0.0000   0.0000   0.0000   0.3298
   8.600   0.7156   0.09583   0.08423  -0.0619  0.5279  1.0000  -1.9353   0.0000   0.0000   0.0000   0.3300
   8.700   0.7484   0.09690   0.08557  -0.0597  0.4883  1.0000  -2.0710   0.0000   0.0000   0.0000   0.3233
   8.800   0.7453   0.09885   0.08751  -0.0603  0.4878  1.0000  -2.0558   0.0000   0.0000   0.0000   0.3243
   8.900   0.7429   0.10084   0.08950  -0.0608  0.4876  1.0000  -2.0424   0.0000   0.0000   0.0000   0.3252
   9.000   0.7413   0.10288   0.09154  -0.0615  0.4878  1.0000  -2.0308   0.0000   0.0000   0.0000   0.3262
   9.100   0.7405   0.10499   0.09366  -0.0622  0.4883  1.0000  -2.0213   0.0000   0.0000   0.0000   0.3271
   9.200   0.7409   0.10722   0.09591  -0.0629  0.4894  1.0000  -2.0144   0.0000   0.0000   0.0000   0.3280
   9.300   0.7428   0.10966   0.09837  -0.0638  0.4909  1.0000  -2.0112   0.0000   0.0000   0.0000   0.3289
   9.400   0.7475   0.11248   0.10123  -0.0648  0.4928  1.0000  -2.0143   0.0000   0.0000   0.0000   0.3297
   9.500   0.7523   0.11534   0.10414  -0.0658  0.4943  1.0000  -2.0179   0.0000   0.0000   0.0000   0.3305
   9.600   0.7545   0.11779   0.10662  -0.0666  0.4948  1.0000  -2.0151   0.0000   0.0000   0.0000   0.3312
   9.700   0.7547   0.11994   0.10878  -0.0673  0.4949  1.0000  -2.0081   0.0000   0.0000   0.0000   0.3319
   9.800   0.7539   0.12187   0.11071  -0.0678  0.4948  1.0000  -1.9984   0.0000   0.0000   0.0000   0.3327
   9.900   0.7526   0.12368   0.11253  -0.0683  0.4946  1.0000  -1.9878   0.0000   0.0000   0.0000   0.3334
  10.000   0.7515   0.12549   0.11434  -0.0688  0.4944  1.0000  -1.9776   0.0000   0.0000   0.0000   0.3341
  10.100   0.7513   0.12745   0.11630  -0.0694  0.4944  1.0000  -1.9695   0.0000   0.0000   0.0000   0.3348
  10.200   0.7553   0.13018   0.11907  -0.0703  0.4951  1.0000  -1.9697   0.0000   0.0000   0.0000   0.3354
  10.300   0.6391   0.12799   0.11628  -0.0800  0.7877  1.0000  -1.5753   0.0000   0.0000   0.0000   0.3663
  10.400   0.6500   0.13250   0.12082  -0.0821  0.7852  1.0000  -1.5947   0.0000   0.0000   0.0000   0.3673
  10.500   0.6435   0.13165   0.11996  -0.0809  0.7836  1.0000  -1.5819   0.0000   0.0000   0.0000   0.3667
  10.600   0.6338   0.12966   0.11797  -0.0791  0.7790  1.0000  -1.5641   0.0000   0.0000   0.0000   0.3657
  10.700   0.6304   0.12897   0.11730  -0.0782  0.7684  1.0000  -1.5588   0.0000   0.0000   0.0000   0.3648
  10.800   0.6723   0.14017   0.12868  -0.0839  0.7405  1.0000  -1.6380   0.0000   0.0000   0.0000   0.3656
  10.900   0.6615   0.13782   0.12631  -0.0821  0.7375  1.0000  -1.6174   0.0000   0.0000   0.0000   0.3648
  11.000   0.6517   0.13530   0.12377  -0.0801  0.7275  1.0000  -1.6002   0.0000   0.0000   0.0000   0.3636
  11.100   0.7070   0.15075   0.13947  -0.0869  0.6953  1.0000  -1.6983   0.0000   0.0000   0.0000   0.3639
  11.200   0.6988   0.14933   0.13804  -0.0858  0.6943  1.0000  -1.6812   0.0000   0.0000   0.0000   0.3635
  11.300   0.6890   0.14719   0.13587  -0.0844  0.6922  1.0000  -1.6617   0.0000   0.0000   0.0000   0.3630
  11.400   0.6782   0.14440   0.13305  -0.0826  0.6866  1.0000  -1.6413   0.0000   0.0000   0.0000   0.3623
  11.500   0.6752   0.14378   0.13244  -0.0820  0.6776  1.0000  -1.6342   0.0000   0.0000   0.0000   0.3618
  11.600   0.6792   0.14514   0.13383  -0.0823  0.6689  1.0000  -1.6381   0.0000   0.0000   0.0000   0.3614
  11.700   0.6884   0.14795   0.13672  -0.0832  0.6609  1.0000  -1.6495   0.0000   0.0000   0.0000   0.3612
  11.800   0.7051   0.15339   0.14225  -0.0852  0.6536  1.0000  -1.6707   0.0000   0.0000   0.0000   0.3611
  11.900   0.7416   0.16816   0.15715  -0.0902  0.6472  1.0000  -1.7117   0.0000   0.0000   0.0000   0.3620
  12.000   0.7304   0.16519   0.15414  -0.0888  0.6460  1.0000  -1.6902   0.0000   0.0000   0.0000   0.3617
  12.100   0.7180   0.16149   0.15040  -0.0871  0.6435  1.0000  -1.6676   0.0000   0.0000   0.0000   0.3614
  12.200   0.7070   0.15792   0.14679  -0.0856  0.6375  1.0000  -1.6473   0.0000   0.0000   0.0000   0.3610
  12.300   0.7044   0.15719   0.14607  -0.0851  0.6288  1.0000  -1.6383   0.0000   0.0000   0.0000   0.3606
  12.400   0.7084   0.15852   0.14744  -0.0853  0.6198  1.0000  -1.6373   0.0000   0.0000   0.0000   0.3601
  12.500   0.7523   0.17480   0.16390  -0.0892  0.5962  1.0000  -1.6832   0.0000   0.0000   0.0000   0.3585
  12.600   0.7414   0.17140   0.16045  -0.0880  0.5941  1.0000  -1.6622   0.0000   0.0000   0.0000   0.3585
  12.700   0.7309   0.16778   0.15680  -0.0868  0.5893  1.0000  -1.6421   0.0000   0.0000   0.0000   0.3584
  12.800   0.7260   0.16579   0.15480  -0.0860  0.5777  1.0000  -1.6296   0.0000   0.0000   0.0000   0.3580
  12.900   0.7587   0.17594   0.16513  -0.0876  0.5523  1.0000  -1.6594   0.0000   0.0000   0.0000   0.3552
  13.000   0.7872   0.19021   0.17948  -0.0908  0.5470  1.0000  -1.7026   0.0000   0.0000   0.0000   0.3551
  13.100   0.7765   0.18686   0.17608  -0.0899  0.5459  1.0000  -1.6773   0.0000   0.0000   0.0000   0.3553
  13.200   0.7652   0.18293   0.17210  -0.0889  0.5440  1.0000  -1.6510   0.0000   0.0000   0.0000   0.3556
  13.300   0.7547   0.17891   0.16805  -0.0880  0.5397  1.0000  -1.6268   0.0000   0.0000   0.0000   0.3558
  13.400   0.7497   0.17687   0.16599  -0.0876  0.5326  1.0000  -1.6154   0.0000   0.0000   0.0000   0.3559
  13.500   0.7506   0.17722   0.16635  -0.0876  0.5247  1.0000  -1.6173   0.0000   0.0000   0.0000   0.3557
  13.600   0.7555   0.17908   0.16825  -0.0879  0.5170  1.0000  -1.6280   0.0000   0.0000   0.0000   0.3553
  13.700   0.7652   0.18277   0.17199  -0.0884  0.5095  1.0000  -1.6487   0.0000   0.0000   0.0000   0.3545
  13.800   0.7876   0.19264   0.18197  -0.0899  0.5016  1.0000  -1.6938   0.0000   0.0000   0.0000   0.3531
  13.900   0.8158   0.20882   0.19820  -0.0926  0.4965  1.0000  -1.7399   0.0000   0.0000   0.0000   0.3525
  14.000   0.8051   0.20480   0.19414  -0.0919  0.4955  1.0000  -1.7149   0.0000   0.0000   0.0000   0.3530
  14.100   0.7944   0.20027   0.18956  -0.0913  0.4938  1.0000  -1.6899   0.0000   0.0000   0.0000   0.3536
  14.200   0.7846   0.19562   0.18487  -0.0908  0.4905  1.0000  -1.6668   0.0000   0.0000   0.0000   0.3542
  14.300   0.7788   0.19296   0.18219  -0.0905  0.4847  1.0000  -1.6515   0.0000   0.0000   0.0000   0.3546
  14.400   0.7782   0.19281   0.18203  -0.0906  0.4777  1.0000  -1.6466   0.0000   0.0000   0.0000   0.3547
  14.500   0.7810   0.19409   0.18333  -0.0908  0.4708  1.0000  -1.6489   0.0000   0.0000   0.0000   0.3544
  14.600   0.7866   0.19649   0.18575  -0.0911  0.4642  1.0000  -1.6574   0.0000   0.0000   0.0000   0.3539
  14.700   0.7971   0.20091   0.19022  -0.0916  0.4573  1.0000  -1.6767   0.0000   0.0000   0.0000   0.3529
  14.800   0.8330   0.22201   0.21141  -0.0934  0.4456  1.0000  -1.7463   0.0000   0.0000   0.0000   0.3504
  14.900   0.8241   0.21777   0.20713  -0.0932  0.4445  1.0000  -1.7240   0.0000   0.0000   0.0000   0.3511
  15.000   0.8154   0.21345   0.20277  -0.0930  0.4426  1.0000  -1.7017   0.0000   0.0000   0.0000   0.3519
  15.100   0.8077   0.20968   0.19896  -0.0929  0.4388  1.0000  -1.6812   0.0000   0.0000   0.0000   0.3527
  15.200   0.8034   0.20770   0.19696  -0.0930  0.4319  1.0000  -1.6686   0.0000   0.0000   0.0000   0.3532
  15.300   0.8046   0.20813   0.19739  -0.0930  0.4218  1.0000  -1.6701   0.0000   0.0000   0.0000   0.3530
  15.500   0.8566   0.23637   0.22580  -0.0940  0.3963  1.0000  -1.7845   0.0000   0.0000   0.0000   0.3474
  15.600   0.8485   0.23237   0.22176  -0.0940  0.3955  1.0000  -1.7622   0.0000   0.0000   0.0000   0.3483
  15.700   0.8403   0.22832   0.21768  -0.0941  0.3941  1.0000  -1.7395   0.0000   0.0000   0.0000   0.3493
  15.800   0.8327   0.22464   0.21396  -0.0943  0.3917  1.0000  -1.7176   0.0000   0.0000   0.0000   0.3504
  15.900   0.8274   0.22230   0.21160  -0.0947  0.3877  1.0000  -1.7006   0.0000   0.0000   0.0000   0.3513
  16.000   0.8257   0.22184   0.21113  -0.0950  0.3827  1.0000  -1.6916   0.0000   0.0000   0.0000   0.3518
  16.100   0.8265   0.22263   0.21192  -0.0954  0.3773  1.0000  -1.6887   0.0000   0.0000   0.0000   0.3520
  16.200   0.8290   0.22415   0.21346  -0.0957  0.3721  1.0000  -1.6899   0.0000   0.0000   0.0000   0.3519
  16.300   0.8331   0.22631   0.21564  -0.0960  0.3670  1.0000  -1.6951   0.0000   0.0000   0.0000   0.3516
  16.400   0.8393   0.22934   0.21869  -0.0962  0.3621  1.0000  -1.7050   0.0000   0.0000   0.0000   0.3509
  16.500   0.8515   0.23582   0.22572  -0.0962  0.3560  1.0000  -1.7136   0.0000   0.0000   0.0000   0.3493
  16.600   0.8984   0.26694   0.25701  -0.0976  0.3490  1.0000  -1.7988   0.0000   0.0000   0.0000   0.3452
  16.700   0.8914   0.26348   0.25352  -0.0978  0.3485  1.0000  -1.7777   0.0000   0.0000   0.0000   0.3462
  16.800   0.8841   0.25982   0.24982  -0.0981  0.3480  1.0000  -1.7557   0.0000   0.0000   0.0000   0.3472
  16.900   0.8766   0.25611   0.24608  -0.0984  0.3472  1.0000  -1.7332   0.0000   0.0000   0.0000   0.3483
  17.000   0.8693   0.25250   0.24243  -0.0988  0.3460  1.0000  -1.7104   0.0000   0.0000   0.0000   0.3495
  17.100   0.8627   0.24931   0.23921  -0.0992  0.3440  1.0000  -1.6883   0.0000   0.0000   0.0000   0.3507
  17.200   0.8579   0.24726   0.23715  -0.0997  0.3408  1.0000  -1.6698   0.0000   0.0000   0.0000   0.3517
  17.300   0.8557   0.24680   0.23668  -0.1002  0.3366  1.0000  -1.6570   0.0000   0.0000   0.0000   0.3525
  17.400   0.8557   0.24749   0.23737  -0.1007  0.3321  1.0000  -1.6490   0.0000   0.0000   0.0000   0.3529
  17.500   0.8572   0.24885   0.23875  -0.1011  0.3276  1.0000  -1.6441   0.0000   0.0000   0.0000   0.3530
  17.600   0.8597   0.25070   0.24061  -0.1014  0.3232  1.0000  -1.6419   0.0000   0.0000   0.0000   0.3529
  17.700   0.8633   0.25302   0.24296  -0.1017  0.3189  1.0000  -1.6424   0.0000   0.0000   0.0000   0.3526
  17.800   0.8685   0.25603   0.24600  -0.1018  0.3148  1.0000  -1.6465   0.0000   0.0000   0.0000   0.3520
  17.900   0.8764   0.26041   0.25042  -0.1019  0.3107  1.0000  -1.6565   0.0000   0.0000   0.0000   0.3510
  18.000   0.8917   0.26931   0.25939  -0.1019  0.3063  1.0000  -1.6814   0.0000   0.0000   0.0000   0.3491
  18.100   0.9246   0.29392   0.28405  -0.1029  0.3023  1.0000  -1.7387   0.0000   0.0000   0.0000   0.3462
  18.200   0.9179   0.29076   0.28087  -0.1033  0.3019  1.0000  -1.7171   0.0000   0.0000   0.0000   0.3472
  18.300   0.9111   0.28758   0.27766  -0.1037  0.3014  1.0000  -1.6950   0.0000   0.0000   0.0000   0.3484
  18.400   0.9042   0.28442   0.27448  -0.1042  0.3007  1.0000  -1.6723   0.0000   0.0000   0.0000   0.3495
  18.500   0.8975   0.28141   0.27145  -0.1047  0.2997  1.0000  -1.6495   0.0000   0.0000   0.0000   0.3508
  18.600   0.8913   0.27882   0.26884  -0.1052  0.2981  1.0000  -1.6275   0.0000   0.0000   0.0000   0.3520
  18.700   0.8864   0.27707   0.26709  -0.1058  0.2958  1.0000  -1.6083   0.0000   0.0000   0.0000   0.3531
  18.800   0.8834   0.27654   0.26655  -0.1064  0.2927  1.0000  -1.5941   0.0000   0.0000   0.0000   0.3540
  18.900   0.8822   0.27704   0.26706  -0.1069  0.2892  1.0000  -1.5846   0.0000   0.0000   0.0000   0.3546
  19.000   0.8822   0.27819   0.26823  -0.1073  0.2855  1.0000  -1.5787   0.0000   0.0000   0.0000   0.3550
  19.100   0.8830   0.27975   0.26980  -0.1077  0.2819  1.0000  -1.5753   0.0000   0.0000   0.0000   0.3552
  19.200   0.8845   0.28162   0.27169  -0.1080  0.2783  1.0000  -1.5742   0.0000   0.0000   0.0000   0.3552
  19.300   0.8868   0.28378   0.27387  -0.1083  0.2749  1.0000  -1.5755   0.0000   0.0000   0.0000   0.3551
  19.400   0.8899   0.28632   0.27644  -0.1084  0.2715  1.0000  -1.5796   0.0000   0.0000   0.0000   0.3547
  19.500   0.8944   0.28948   0.27963  -0.1086  0.2683  1.0000  -1.5880   0.0000   0.0000   0.0000   0.3542
  19.600   0.9015   0.29393   0.28412  -0.1086  0.2650  1.0000  -1.6035   0.0000   0.0000   0.0000   0.3533
  19.700   0.9155   0.30247   0.29272  -0.1087  0.2616  1.0000  -1.6372   0.0000   0.0000   0.0000   0.3514
  19.800   0.9516   0.32849   0.31875  -0.1097  0.2579  1.0000  -1.7156   0.0000   0.0000   0.0000   0.3481
  19.900   0.9449   0.32586   0.31611  -0.1101  0.2576  1.0000  -1.6927   0.0000   0.0000   0.0000   0.3492
  20.000   0.9380   0.32320   0.31345  -0.1105  0.2573  1.0000  -1.6691   0.0000   0.0000   0.0000   0.3503
  20.100   0.9309   0.32057   0.31081  -0.1109  0.2568  1.0000  -1.6447   0.0000   0.0000   0.0000   0.3514
  20.200   0.9235   0.31800   0.30824  -0.1112  0.2562  1.0000  -1.6197   0.0000   0.0000   0.0000   0.3526
  20.300   0.9162   0.31560   0.30585  -0.1116  0.2554  1.0000  -1.5944   0.0000   0.0000   0.0000   0.3538
  20.400   0.9091   0.31354   0.30379  -0.1119  0.2542  1.0000  -1.5695   0.0000   0.0000   0.0000   0.3549
  20.500   0.9026   0.31203   0.30230  -0.1122  0.2526  1.0000  -1.5463   0.0000   0.0000   0.0000   0.3560
  20.600   0.8974   0.31130   0.30158  -0.1125  0.2505  1.0000  -1.5263   0.0000   0.0000   0.0000   0.3569
  20.700   0.8934   0.31130   0.30161  -0.1128  0.2480  1.0000  -1.5101   0.0000   0.0000   0.0000   0.3576
  20.800   0.8903   0.31182   0.30216  -0.1130  0.2452  1.0000  -1.4968   0.0000   0.0000   0.0000   0.3582
  20.900   0.8879   0.31268   0.30304  -0.1131  0.2424  1.0000  -1.4858   0.0000   0.0000   0.0000   0.3586
  21.000   0.8859   0.31372   0.30412  -0.1131  0.2395  1.0000  -1.4764   0.0000   0.0000   0.0000   0.3588
  21.100   0.8841   0.31490   0.30533  -0.1131  0.2366  1.0000  -1.4684   0.0000   0.0000   0.0000   0.3590
  21.200   0.8828   0.31620   0.30668  -0.1131  0.2337  1.0000  -1.4621   0.0000   0.0000   0.0000   0.3590
  21.300   0.8821   0.31773   0.30824  -0.1130  0.2308  1.0000  -1.4582   0.0000   0.0000   0.0000   0.3589
  21.400   0.8829   0.31973   0.31029  -0.1128  0.2277  1.0000  -1.4590   0.0000   0.0000   0.0000   0.3586
  21.500   0.8877   0.32317   0.31376  -0.1129  0.2243  1.0000  -1.4714   0.0000   0.0000   0.0000   0.3579
  21.600   0.9557   0.35830   0.34879  -0.1159  0.2159  1.0000  -1.6443   0.0000   0.0000   0.0000   0.3518
  21.700   0.9470   0.35577   0.34628  -0.1160  0.2157  1.0000  -1.6159   0.0000   0.0000   0.0000   0.3529
  21.800   0.9375   0.35313   0.34366  -0.1160  0.2154  1.0000  -1.5860   0.0000   0.0000   0.0000   0.3539
  21.900   0.9272   0.35034   0.34090  -0.1157  0.2150  1.0000  -1.5541   0.0000   0.0000   0.0000   0.3550
  22.000   0.9155   0.34729   0.33789  -0.1153  0.2146  1.0000  -1.5197   0.0000   0.0000   0.0000   0.3560
  22.100   0.9020   0.34378   0.33444  -0.1145  0.2141  1.0000  -1.4817   0.0000   0.0000   0.0000   0.3570
  22.200   0.8795   0.33780   0.32859  -0.1122  0.2138  1.0000  -1.4264   0.0000   0.0000   0.0000   0.3578
  22.300   0.8603   0.33188   0.32278  -0.1103  0.2134  1.0000  -1.3775   0.0000   0.0000   0.0000   0.3587
  22.400   0.8455   0.32689   0.31786  -0.1092  0.2126  1.0000  -1.3376   0.0000   0.0000   0.0000   0.3597
  22.500   0.8338   0.32274   0.31377  -0.1084  0.2116  1.0000  -1.3039   0.0000   0.0000   0.0000   0.3606
  22.600   0.8247   0.31950   0.31058  -0.1080  0.2101  1.0000  -1.2759   0.0000   0.0000   0.0000   0.3616
  22.700   0.8179   0.31722   0.30835  -0.1078  0.2082  1.0000  -1.2533   0.0000   0.0000   0.0000   0.3624
  22.800   0.8129   0.31579   0.30696  -0.1078  0.2059  1.0000  -1.2357   0.0000   0.0000   0.0000   0.3631
  22.900   0.8093   0.31500   0.30622  -0.1078  0.2034  1.0000  -1.2218   0.0000   0.0000   0.0000   0.3636
  23.000   0.8067   0.31467   0.30592  -0.1078  0.2007  1.0000  -1.2110   0.0000   0.0000   0.0000   0.3640
  23.100   0.8048   0.31467   0.30596  -0.1079  0.1979  1.0000  -1.2026   0.0000   0.0000   0.0000   0.3643
  23.200   0.8036   0.31495   0.30627  -0.1079  0.1951  1.0000  -1.1965   0.0000   0.0000   0.0000   0.3644
  23.300   0.8030   0.31551   0.30686  -0.1079  0.1923  1.0000  -1.1928   0.0000   0.0000   0.0000   0.3645
  23.400   0.8033   0.31645   0.30784  -0.1080  0.1894  1.0000  -1.1922   0.0000   0.0000   0.0000   0.3644
  23.500   0.8049   0.31807   0.30950  -0.1080  0.1866  1.0000  -1.1962   0.0000   0.0000   0.0000   0.3641
  23.600   0.8094   0.32140   0.31286  -0.1080  0.1835  1.0000  -1.2100   0.0000   0.0000   0.0000   0.3633
  23.700   0.8884   0.36934   0.36077  -0.1141  0.1771  1.0000  -1.4037   0.0000   0.0000   0.0000   0.3572
  23.800   0.8733   0.36320   0.35470  -0.1129  0.1769  1.0000  -1.3626   0.0000   0.0000   0.0000   0.3582
  23.900   0.8602   0.35757   0.34913  -0.1120  0.1767  1.0000  -1.3256   0.0000   0.0000   0.0000   0.3592
  24.000   0.8486   0.35231   0.34393  -0.1113  0.1765  1.0000  -1.2914   0.0000   0.0000   0.0000   0.3602
  24.100   0.8382   0.34740   0.33907  -0.1108  0.1763  1.0000  -1.2596   0.0000   0.0000   0.0000   0.3612
  24.200   0.8288   0.34285   0.33456  -0.1104  0.1760  1.0000  -1.2300   0.0000   0.0000   0.0000   0.3622
  24.300   0.8204   0.33866   0.33042  -0.1102  0.1756  1.0000  -1.2024   0.0000   0.0000   0.0000   0.3633
  24.400   0.8130   0.33490   0.32669  -0.1101  0.1752  1.0000  -1.1767   0.0000   0.0000   0.0000   0.3643
  24.500   0.8066   0.33163   0.32346  -0.1101  0.1745  1.0000  -1.1532   0.0000   0.0000   0.0000   0.3653
  24.600   0.8012   0.32892   0.32079  -0.1102  0.1738  1.0000  -1.1321   0.0000   0.0000   0.0000   0.3663
  24.700   0.7969   0.32683   0.31873  -0.1104  0.1728  1.0000  -1.1137   0.0000   0.0000   0.0000   0.3672
  24.800   0.7935   0.32537   0.31730  -0.1107  0.1716  1.0000  -1.0980   0.0000   0.0000   0.0000   0.3680
  24.900   0.7911   0.32448   0.31643  -0.1110  0.1702  1.0000  -1.0848   0.0000   0.0000   0.0000   0.3687
  25.000   0.7893   0.32402   0.31600  -0.1113  0.1687  1.0000  -1.0738   0.0000   0.0000   0.0000   0.3693
  25.100   0.7879   0.32387   0.31588  -0.1117  0.1671  1.0000  -1.0645   0.0000   0.0000   0.0000   0.3699
  25.200   0.7869   0.32393   0.31597  -0.1120  0.1656  1.0000  -1.0564   0.0000   0.0000   0.0000   0.3703
  25.300   0.7861   0.32414   0.31620  -0.1123  0.1640  1.0000  -1.0493   0.0000   0.0000   0.0000   0.3707
  25.400   0.7855   0.32445   0.31654  -0.1126  0.1624  1.0000  -1.0430   0.0000   0.0000   0.0000   0.3711
  25.500   0.7851   0.32485   0.31697  -0.1129  0.1608  1.0000  -1.0374   0.0000   0.0000   0.0000   0.3714
  25.600   0.7848   0.32531   0.31746  -0.1132  0.1593  1.0000  -1.0324   0.0000   0.0000   0.0000   0.3717
  25.700   0.7846   0.32585   0.31802  -0.1134  0.1577  1.0000  -1.0280   0.0000   0.0000   0.0000   0.3720
  25.800   0.7846   0.32644   0.31865  -0.1137  0.1562  1.0000  -1.0242   0.0000   0.0000   0.0000   0.3722
  25.900   0.7847   0.32711   0.31935  -0.1140  0.1548  1.0000  -1.0211   0.0000   0.0000   0.0000   0.3724
  26.000   0.7849   0.32787   0.32014  -0.1142  0.1533  1.0000  -1.0188   0.0000   0.0000   0.0000   0.3725
  26.100   0.7853   0.32874   0.32103  -0.1145  0.1519  1.0000  -1.0172   0.0000   0.0000   0.0000   0.3726
  26.200   0.7860   0.32976   0.32209  -0.1147  0.1505  1.0000  -1.0168   0.0000   0.0000   0.0000   0.3726
  26.300   0.7869   0.33101   0.32337  -0.1149  0.1491  1.0000  -1.0176   0.0000   0.0000   0.0000   0.3726
  26.400   0.7883   0.33263   0.32501  -0.1151  0.1477  1.0000  -1.0204   0.0000   0.0000   0.0000   0.3724
  26.500   0.7905   0.33488   0.32730  -0.1153  0.1464  1.0000  -1.0260   0.0000   0.0000   0.0000   0.3722
  26.600   0.7942   0.33845   0.33091  -0.1155  0.1450  1.0000  -1.0367   0.0000   0.0000   0.0000   0.3716
  26.700   0.8023   0.34579   0.33827  -0.1159  0.1435  1.0000  -1.0604   0.0000   0.0000   0.0000   0.3705


