xflr5 v6.61

 Calculated polar for: RG-15 8.9%

 1 1 Reynolds number fixed          Mach number fixed         

 xtrf =   1.000 (top)        1.000 (bottom)
 Mach =   0.000     Re =     0.160 e 6     Ncrit =   9.000

  alpha     CL        CD       CDp       Cm    Top Xtr Bot Xtr   Cpmin    Chinge    XCp    
 ------- -------- --------- --------- -------- ------- ------- -------- --------- ---------
   0.500   0.2924   0.01081   0.00522  -0.0570  0.9121  1.0000  -0.5122   0.0000   0.0000   0.0000   0.4438
   1.000   0.3686   0.01037   0.00477  -0.0608  0.8873  1.0000  -0.5903   0.0000   0.0000   0.0000   0.4136
   1.500   0.4336   0.01007   0.00437  -0.0622  0.8542  1.0000  -0.6750   0.0000   0.0000   0.0000   0.3916
   2.000   0.4896   0.00997   0.00417  -0.0617  0.8134  1.0000  -0.7712   0.0000   0.0000   0.0000   0.3739
   2.500   0.5424   0.01004   0.00411  -0.0604  0.7661  1.0000  -0.8760   0.0000   0.0000   0.0000   0.3590
   3.000   0.5937   0.01024   0.00416  -0.0589  0.7137  1.0000  -1.0234   0.0000   0.0000   0.0000   0.3465
   3.500   0.6436   0.01059   0.00430  -0.0572  0.6559  1.0000  -1.1850   0.0000   0.0000   0.0000   0.3358
   4.000   0.6920   0.01107   0.00458  -0.0553  0.5939  1.0000  -1.3663   0.0000   0.0000   0.0000   0.3265
   4.500   0.7393   0.01161   0.00528  -0.0534  0.5266  1.0000  -1.7143   0.0000   0.0000   0.0000   0.3183
   5.000   0.7844   0.01239   0.00577  -0.0512  0.4519  1.0000  -2.0651   0.0000   0.0000   0.0000   0.3110
   5.500   0.8290   0.01323   0.00642  -0.0492  0.3714  1.0000  -2.4340   0.0000   0.0000   0.0000   0.3046
   6.000   0.8712   0.01439   0.00727  -0.0470  0.2829  1.0000  -2.8607   0.0000   0.0000   0.0000   0.2987
   6.500   0.9104   0.01601   0.00843  -0.0447  0.1894  1.0000  -3.4344   0.0000   0.0000   0.0000   0.2933
   7.000   0.9486   0.01800   0.01004  -0.0424  0.1180  1.0000  -4.0099   0.0000   0.0000   0.0000   0.2884
   7.500   0.9896   0.01960   0.01138  -0.0409  0.0666  1.0000  -4.6533   0.0000   0.0000   0.0000   0.2845
   8.000   1.0200   0.02284   0.01482  -0.0372  0.0270  1.0000  -4.9408   0.0000   0.0000   0.0000   0.2790
   8.500   1.0438   0.02783   0.02014  -0.0325  0.0198  1.0000  -5.0664   0.0000   0.0000   0.0000   0.2732
   9.000   1.0769   0.03265   0.02553  -0.0293  0.0181  1.0000  -5.2828   0.0000   0.0000   0.0000   0.2687
   9.500   1.0990   0.03905   0.03270  -0.0254  0.0176  1.0000  -5.3890   0.0000   0.0000   0.0000   0.2640
  10.000   1.1015   0.04629   0.04071  -0.0203  0.0177  1.0000  -5.4362   0.0000   0.0000   0.0000   0.2589
  10.500   1.0807   0.05325   0.04829  -0.0143  0.0180  1.0000  -5.3988   0.0000   0.0000   0.0000   0.2532
  11.000   1.0467   0.06087   0.05640  -0.0112  0.0183  1.0000  -5.2946   0.0000   0.0000   0.0000   0.2500
  11.500   1.0076   0.07079   0.06672  -0.0138  0.0185  1.0000  -5.1252   0.0000   0.0000   0.0000   0.2523
  12.000   0.9654   0.08409   0.08035  -0.0223  0.0187  1.0000  -4.8616   0.0000   0.0000   0.0000   0.2611
  12.500   0.9215   0.10288   0.09936  -0.0361  0.0191  1.0000  -4.4099   0.0000   0.0000   0.0000   0.2768
  13.000   0.8799   0.12521   0.12171  -0.0497  0.0200  1.0000  -3.7231   0.0000   0.0000   0.0000   0.2940
  13.500   0.8684   0.13932   0.13583  -0.0561  0.0213  1.0000  -3.4046   0.0000   0.0000   0.0000   0.3020
  14.000   0.8516   0.16000   0.15639  -0.0667  0.0277  1.0000  -2.5612   0.0000   0.0000   0.0000   0.3159
  15.000   0.8570   0.18375   0.18012  -0.0770  0.0415  1.0000  -2.1503   0.0000   0.0000   0.0000   0.3269
  15.500   0.8674   0.19279   0.18917  -0.0803  0.0402  1.0000  -2.1865   0.0000   0.0000   0.0000   0.3290
  16.000   0.8814   0.20192   0.19833  -0.0824  0.0387  1.0000  -2.2935   0.0000   0.0000   0.0000   0.3292
  16.500   0.8821   0.21882   0.21517  -0.0859  0.0366  1.0000  -2.1876   0.0000   0.0000   0.0000   0.3327
  17.000   0.8909   0.22956   0.22592  -0.0902  0.0365  1.0000  -2.1491   0.0000   0.0000   0.0000   0.3360
  17.500   0.8994   0.24007   0.23644  -0.0945  0.0363  1.0000  -2.1111   0.0000   0.0000   0.0000   0.3392
  18.000   0.9073   0.25012   0.24650  -0.0988  0.0361  1.0000  -2.0717   0.0000   0.0000   0.0000   0.3425
  18.500   0.9132   0.25895   0.25533  -0.1036  0.0355  1.0000  -2.0127   0.0000   0.0000   0.0000   0.3464
  19.000   0.9158   0.26692   0.26330  -0.1099  0.0333  1.0000  -1.8873   0.0000   0.0000   0.0000   0.3524
  19.500   0.9218   0.27735   0.27375  -0.1140  0.0305  1.0000  -1.8354   0.0000   0.0000   0.0000   0.3555
  20.000   0.9265   0.28788   0.28432  -0.1174  0.0284  1.0000  -1.8097   0.0000   0.0000   0.0000   0.3578


