xflr5 v6.61

 Calculated polar for: RG-15 8.9%

 1 1 Reynolds number fixed          Mach number fixed         

 xtrf =   1.000 (top)        1.000 (bottom)
 Mach =   0.000     Re =     0.002 e 6     Ncrit =   9.000

  alpha     CL        CD       CDp       Cm    Top Xtr Bot Xtr   Cpmin    Chinge    XCp    
 ------- -------- --------- --------- -------- ------- ------- -------- --------- ---------
   0.000   0.0223   0.07759   0.02063  -0.0186  1.0000  1.0000  -0.3753   0.0000   0.0000   0.0000   1.0865
   0.500   0.0558   0.07781   0.02031  -0.0171  1.0000  1.0000  -0.3651   0.0000   0.0000   0.0000   0.5558
   1.000   0.0891   0.07821   0.02038  -0.0158  1.0000  1.0000  -0.3952   0.0000   0.0000   0.0000   0.4249
   1.500   0.1219   0.07880   0.02090  -0.0146  1.0000  1.0000  -0.4277   0.0000   0.0000   0.0000   0.3666
   2.000   0.1542   0.07956   0.02131  -0.0134  1.0000  1.0000  -0.4623   0.0000   0.0000   0.0000   0.3335
   2.500   0.1859   0.08056   0.02284  -0.0122  1.0000  1.0000  -0.5012   0.0000   0.0000   0.0000   0.3123
   3.000   0.2165   0.08177   0.02409  -0.0113  1.0000  1.0000  -0.5410   0.0000   0.0000   0.0000   0.2985
   3.500   0.2464   0.08324   0.02581  -0.0105  1.0000  1.0000  -0.5882   0.0000   0.0000   0.0000   0.2887
   4.000   0.2752   0.08498   0.02793  -0.0099  1.0000  1.0000  -0.6352   0.0000   0.0000   0.0000   0.2816
   4.500   0.3028   0.08699   0.03046  -0.0095  1.0000  1.0000  -0.6894   0.0000   0.0000   0.0000   0.2766
   5.000   0.3289   0.08929   0.03338  -0.0093  1.0000  1.0000  -0.7417   0.0000   0.0000   0.0000   0.2730
   5.500   0.3535   0.09191   0.03671  -0.0093  1.0000  1.0000  -0.8044   0.0000   0.0000   0.0000   0.2708
   6.000   0.3766   0.09486   0.04044  -0.0096  1.0000  1.0000  -0.8630   0.0000   0.0000   0.0000   0.2696
   6.500   0.3982   0.09815   0.04456  -0.0103  1.0000  1.0000  -0.9302   0.0000   0.0000   0.0000   0.2695
   7.000   0.4183   0.10180   0.04907  -0.0113  1.0000  1.0000  -0.9976   0.0000   0.0000   0.0000   0.2702
   7.500   0.4369   0.10580   0.05393  -0.0126  1.0000  1.0000  -1.0584   0.0000   0.0000   0.0000   0.2717
   8.000   0.4542   0.11014   0.05913  -0.0143  1.0000  1.0000  -1.1228   0.0000   0.0000   0.0000   0.2739
   8.500   0.4707   0.11486   0.06606  -0.0162  1.0000  1.0000  -1.1815   0.0000   0.0000   0.0000   0.2764
   9.000   0.4858   0.11983   0.07180  -0.0186  1.0000  1.0000  -1.2605   0.0000   0.0000   0.0000   0.2798
   9.500   0.5003   0.12508   0.07779  -0.0213  1.0000  1.0000  -1.3522   0.0000   0.0000   0.0000   0.2837
  10.000   0.5144   0.13061   0.08402  -0.0242  1.0000  1.0000  -1.4352   0.0000   0.0000   0.0000   0.2878
  10.500   0.5283   0.13639   0.09047  -0.0274  1.0000  1.0000  -1.5100   0.0000   0.0000   0.0000   0.2921
  11.000   0.5420   0.14239   0.09710  -0.0308  1.0000  1.0000  -1.5768   0.0000   0.0000   0.0000   0.2966
  11.500   0.5556   0.14861   0.10392  -0.0343  1.0000  1.0000  -1.6358   0.0000   0.0000   0.0000   0.3010
  12.000   0.5694   0.15504   0.11091  -0.0380  1.0000  1.0000  -1.6874   0.0000   0.0000   0.0000   0.3054
  12.500   0.5832   0.16166   0.11808  -0.0417  1.0000  1.0000  -1.7318   0.0000   0.0000   0.0000   0.3097
  13.000   0.5972   0.16849   0.12541  -0.0455  1.0000  1.0000  -1.7693   0.0000   0.0000   0.0000   0.3138
  13.500   0.6112   0.17545   0.13287  -0.0493  1.0000  1.0000  -1.8002   0.0000   0.0000   0.0000   0.3178
  14.000   0.6254   0.18264   0.14053  -0.0531  1.0000  1.0000  -1.8245   0.0000   0.0000   0.0000   0.3215
  14.500   0.6396   0.19010   0.14843  -0.0569  1.0000  1.0000  -1.8423   0.0000   0.0000   0.0000   0.3251
  15.000   0.6538   0.19783   0.15661  -0.0607  1.0000  1.0000  -1.8536   0.0000   0.0000   0.0000   0.3285
  15.500   0.6679   0.20585   0.16505  -0.0645  1.0000  1.0000  -1.8587   0.0000   0.0000   0.0000   0.3316
  16.000   0.6817   0.21415   0.17377  -0.0682  1.0000  1.0000  -1.8575   0.0000   0.0000   0.0000   0.3346
  16.500   0.6954   0.22273   0.18275  -0.0719  1.0000  1.0000  -1.8505   0.0000   0.0000   0.0000   0.3373
  17.000   0.7087   0.23157   0.19198  -0.0756  1.0000  1.0000  -1.8379   0.0000   0.0000   0.0000   0.3399
  17.500   0.7216   0.24115   0.20372  -0.0790  1.0000  1.0000  -1.8079   0.0000   0.0000   0.0000   0.3423
  18.000   0.7341   0.25046   0.21344  -0.0825  1.0000  1.0000  -1.7846   0.0000   0.0000   0.0000   0.3446
  18.500   0.7460   0.25996   0.22333  -0.0859  1.0000  1.0000  -1.7591   0.0000   0.0000   0.0000   0.3467
  19.000   0.7573   0.26963   0.23340  -0.0892  1.0000  1.0000  -1.7368   0.0000   0.0000   0.0000   0.3488
  19.500   0.7679   0.27944   0.24360  -0.0924  1.0000  1.0000  -1.7473   0.0000   0.0000   0.0000   0.3507
  20.000   0.7777   0.28935   0.25391  -0.0955  1.0000  1.0000  -1.7530   0.0000   0.0000   0.0000   0.3525


