xflr5 v6.61

 Calculated polar for: RG-15 8.9%

 1 1 Reynolds number fixed          Mach number fixed         

 xtrf =   1.000 (top)        1.000 (bottom)
 Mach =   0.000     Re =     0.080 e 6     Ncrit =   9.000

  alpha     CL        CD       CDp       Cm    Top Xtr Bot Xtr   Cpmin    Chinge    XCp    
 ------- -------- --------- --------- -------- ------- ------- -------- --------- ---------
   0.000   0.0060   0.01552   0.00774  -0.0182  1.0000  1.0000  -0.5426   0.0000   0.0000   0.0000   3.2697
   0.500   0.1073   0.01678   0.00884  -0.0292  0.9757  1.0000  -0.3898   0.0000   0.0000   0.0000   0.5202
   1.000   0.2047   0.01764   0.00949  -0.0386  0.9473  1.0000  -0.4657   0.0000   0.0000   0.0000   0.4369
   1.500   0.2956   0.01804   0.00997  -0.0460  0.9149  1.0000  -0.5502   0.0000   0.0000   0.0000   0.4036
   2.000   0.3887   0.01806   0.01002  -0.0529  0.8823  1.0000  -0.6554   0.0000   0.0000   0.0000   0.3837
   2.500   0.4801   0.01766   0.00974  -0.0583  0.8483  1.0000  -0.7865   0.0000   0.0000   0.0000   0.3689
   3.000   0.5584   0.01711   0.00934  -0.0604  0.8082  1.0000  -0.9419   0.0000   0.0000   0.0000   0.3555
   3.500   0.6259   0.01664   0.00898  -0.0602  0.7594  1.0000  -1.1288   0.0000   0.0000   0.0000   0.3431
   4.000   0.6851   0.01642   0.00876  -0.0583  0.7026  1.0000  -1.3106   0.0000   0.0000   0.0000   0.3317
   4.500   0.7357   0.01668   0.00937  -0.0554  0.6367  1.0000  -1.6659   0.0000   0.0000   0.0000   0.3216
   5.000   0.7820   0.01710   0.00970  -0.0521  0.5611  1.0000  -2.0172   0.0000   0.0000   0.0000   0.3124
   5.500   0.8253   0.01788   0.01029  -0.0486  0.4766  1.0000  -2.3754   0.0000   0.0000   0.0000   0.3043
   6.000   0.8649   0.01907   0.01116  -0.0450  0.3816  1.0000  -2.7317   0.0000   0.0000   0.0000   0.2969
   6.500   0.8994   0.02086   0.01251  -0.0410  0.2757  1.0000  -3.1279   0.0000   0.0000   0.0000   0.2900
   7.000   0.9336   0.02360   0.01480  -0.0376  0.1885  1.0000  -3.6113   0.0000   0.0000   0.0000   0.2840
   7.500   0.9728   0.02769   0.01878  -0.0348  0.1342  1.0000  -4.0518   0.0000   0.0000   0.0000   0.2791
   8.000   1.0070   0.03125   0.02240  -0.0316  0.0914  1.0000  -4.4280   0.0000   0.0000   0.0000   0.2742
   8.500   1.0305   0.03658   0.02812  -0.0280  0.0541  1.0000  -4.6059   0.0000   0.0000   0.0000   0.2694
   9.000   1.0593   0.04033   0.03225  -0.0250  0.0410  1.0000  -4.8788   0.0000   0.0000   0.0000   0.2652
   9.500   1.0700   0.04981   0.04247  -0.0213  0.0372  1.0000  -4.8636   0.0000   0.0000   0.0000   0.2611
  11.000   1.0003   0.07433   0.06879  -0.0108  0.0369  1.0000  -4.5588   0.0000   0.0000   0.0000   0.2505
  11.500   0.9677   0.08329   0.07809  -0.0142  0.0374  1.0000  -4.4359   0.0000   0.0000   0.0000   0.2538
  12.000   0.9259   0.09692   0.09205  -0.0250  0.0390  1.0000  -4.1447   0.0000   0.0000   0.0000   0.2654
  12.500   0.8557   0.12863   0.12367  -0.0468  0.0484  1.0000  -3.0838   0.0000   0.0000   0.0000   0.2936
  13.000   0.8479   0.14114   0.13580  -0.0528  0.0513  1.0000  -2.9155   0.0000   0.0000   0.0000   0.3010
  14.000   0.8283   0.17246   0.16705  -0.0700  0.0967  1.0000  -2.0677   0.0000   0.0000   0.0000   0.3231
  14.500   0.8346   0.18101   0.17558  -0.0740  0.0929  1.0000  -1.9974   0.0000   0.0000   0.0000   0.3267
  15.000   0.8462   0.18974   0.18433  -0.0768  0.0885  1.0000  -1.9731   0.0000   0.0000   0.0000   0.3282
  15.500   0.8702   0.20154   0.19647  -0.0766  0.0839  1.0000  -2.0259   0.0000   0.0000   0.0000   0.3250
  16.000   0.8829   0.22073   0.21563  -0.0781  0.0809  1.0000  -2.0420   0.0000   0.0000   0.0000   0.3250
  16.500   0.8884   0.22882   0.22371  -0.0833  0.0804  1.0000  -1.9874   0.0000   0.0000   0.0000   0.3296
  17.000   0.8825   0.23218   0.22701  -0.0905  0.0785  1.0000  -1.8580   0.0000   0.0000   0.0000   0.3378
  17.500   0.8831   0.23841   0.23322  -0.0968  0.0728  1.0000  -1.7660   0.0000   0.0000   0.0000   0.3443
  18.000   0.8912   0.24789   0.24272  -0.1005  0.0678  1.0000  -1.7600   0.0000   0.0000   0.0000   0.3468
  18.500   0.9008   0.25766   0.25254  -0.1033  0.0635  1.0000  -1.7887   0.0000   0.0000   0.0000   0.3480
  19.000   0.9141   0.26856   0.26350  -0.1044  0.0599  1.0000  -1.8776   0.0000   0.0000   0.0000   0.3469
  19.500   0.9373   0.29340   0.28838  -0.1034  0.0566  1.0000  -1.9934   0.0000   0.0000   0.0000   0.3425
  20.000   0.9388   0.30208   0.29710  -0.1074  0.0564  1.0000  -1.9340   0.0000   0.0000   0.0000   0.3459


