xflr5 v6.61

 Calculated polar for: RG-15 8.9%

 1 1 Reynolds number fixed          Mach number fixed         

 xtrf =   1.000 (top)        1.000 (bottom)
 Mach =   0.000     Re =     0.040 e 6     Ncrit =   9.000

  alpha     CL        CD       CDp       Cm    Top Xtr Bot Xtr   Cpmin    Chinge    XCp    
 ------- -------- --------- --------- -------- ------- ------- -------- --------- ---------
   0.000   0.0098   0.01964   0.00839  -0.0172  1.0000  1.0000  -0.5067   0.0000   0.0000   0.0000   2.0031
   0.500   0.0489   0.02039   0.00894  -0.0169  1.0000  1.0000  -0.3589   0.0000   0.0000   0.0000   0.5931
   1.000   0.0867   0.02138   0.00983  -0.0168  1.0000  1.0000  -0.3911   0.0000   0.0000   0.0000   0.4410
   1.500   0.1226   0.02264   0.01106  -0.0170  1.0000  1.0000  -0.4268   0.0000   0.0000   0.0000   0.3849
   2.000   0.1568   0.02420   0.01237  -0.0173  1.0000  1.0000  -0.4628   0.0000   0.0000   0.0000   0.3569
   2.500   0.1888   0.02611   0.01426  -0.0181  1.0000  1.0000  -0.4998   0.0000   0.0000   0.0000   0.3418
   3.000   0.3103   0.02959   0.01798  -0.0347  0.9502  1.0000  -0.6219   0.0000   0.0000   0.0000   0.3583
   3.500   0.4180   0.03200   0.02067  -0.0466  0.8927  1.0000  -0.7611   0.0000   0.0000   0.0000   0.3579
   4.000   0.5245   0.03333   0.02246  -0.0554  0.8312  1.0000  -0.9650   0.0000   0.0000   0.0000   0.3519
   4.500   0.6071   0.03411   0.02374  -0.0584  0.7672  1.0000  -1.1656   0.0000   0.0000   0.0000   0.3424
   5.000   0.7312   0.03170   0.02258  -0.0605  0.6966  1.0000  -1.6878   0.0000   0.0000   0.0000   0.3287
   5.500   0.7886   0.03121   0.02247  -0.0552  0.6131  1.0000  -2.0737   0.0000   0.0000   0.0000   0.3157
   6.000   0.8485   0.03047   0.02179  -0.0487  0.5128  1.0000  -2.4972   0.0000   0.0000   0.0000   0.3027
   6.500   0.8964   0.03136   0.02215  -0.0421  0.3996  1.0000  -2.8725   0.0000   0.0000   0.0000   0.2917
   7.000   0.9321   0.03454   0.02492  -0.0368  0.3007  1.0000  -3.1498   0.0000   0.0000   0.0000   0.2837
   7.500   0.9646   0.03971   0.03054  -0.0327  0.2403  1.0000  -3.4588   0.0000   0.0000   0.0000   0.2777
   8.000   0.9949   0.04450   0.03543  -0.0287  0.1890  1.0000  -3.7766   0.0000   0.0000   0.0000   0.2721
   8.500   1.0089   0.05399   0.04561  -0.0251  0.1695  1.0000  -3.8212   0.0000   0.0000   0.0000   0.2678
   9.000   1.0141   0.06026   0.05264  -0.0206  0.1331  1.0000  -3.9177   0.0000   0.0000   0.0000   0.2628
   9.500   0.9891   0.07011   0.06313  -0.0180  0.1303  1.0000  -3.7633   0.0000   0.0000   0.0000   0.2603
  10.000   0.9513   0.08009   0.07288  -0.0176  0.1338  1.0000  -3.6092   0.0000   0.0000   0.0000   0.2603
  10.500   0.9091   0.09297   0.08581  -0.0222  0.1377  1.0000  -3.3723   0.0000   0.0000   0.0000   0.2657
  11.000   0.8830   0.10825   0.10103  -0.0289  0.1406  1.0000  -3.1386   0.0000   0.0000   0.0000   0.2737
  11.500   0.8352   0.13031   0.12296  -0.0475  0.1827  1.0000  -2.5207   0.0000   0.0000   0.0000   0.2979
  12.000   0.7812   0.15598   0.14840  -0.0715  0.3428  1.0000  -1.8581   0.0000   0.0000   0.0000   0.3326
  12.500   0.7998   0.16517   0.15763  -0.0704  0.2978  1.0000  -1.9055   0.0000   0.0000   0.0000   0.3287
  13.000   0.7921   0.16702   0.15943  -0.0723  0.2710  1.0000  -1.8565   0.0000   0.0000   0.0000   0.3314
  13.500   0.8510   0.19424   0.18679  -0.0715  0.2573  1.0000  -1.9989   0.0000   0.0000   0.0000   0.3240
  14.000   0.8081   0.18420   0.17655  -0.0773  0.2482  1.0000  -1.8258   0.0000   0.0000   0.0000   0.3347
  14.500   0.8171   0.19020   0.18256  -0.0796  0.2298  1.0000  -1.8262   0.0000   0.0000   0.0000   0.3359
  15.000   0.8787   0.22359   0.21611  -0.0777  0.2157  1.0000  -1.9570   0.0000   0.0000   0.0000   0.3268
  15.500   0.8459   0.21276   0.20511  -0.0841  0.2113  1.0000  -1.8086   0.0000   0.0000   0.0000   0.3369
  16.000   0.8439   0.21539   0.20771  -0.0883  0.1956  1.0000  -1.7421   0.0000   0.0000   0.0000   0.3414
  16.500   0.8861   0.24091   0.23370  -0.0867  0.1757  1.0000  -1.7939   0.0000   0.0000   0.0000   0.3343
  17.000   0.8649   0.23497   0.22765  -0.0932  0.1674  1.0000  -1.6628   0.0000   0.0000   0.0000   0.3434
  17.500   0.8924   0.24848   0.24130  -0.0924  0.1451  1.0000  -1.7901   0.0000   0.0000   0.0000   0.3386
  18.000   0.9196   0.27325   0.26610  -0.0938  0.1409  1.0000  -1.8435   0.0000   0.0000   0.0000   0.3368
  18.500   0.8996   0.26910   0.26188  -0.0997  0.1385  1.0000  -1.7136   0.0000   0.0000   0.0000   0.3447
  19.000   0.8944   0.27257   0.26534  -0.1047  0.1304  1.0000  -1.6363   0.0000   0.0000   0.0000   0.3502
  19.500   0.8996   0.28184   0.27467  -0.1074  0.1220  1.0000  -1.6278   0.0000   0.0000   0.0000   0.3518
  20.000   0.9098   0.29313   0.28606  -0.1083  0.1149  1.0000  -1.6647   0.0000   0.0000   0.0000   0.3510


