xflr5 v6.61

 Calculated polar for: RG-15 8.9%

 1 1 Reynolds number fixed          Mach number fixed         

 xtrf =   1.000 (top)        1.000 (bottom)
 Mach =   0.000     Re =     0.200 e 6     Ncrit =   9.000

  alpha     CL        CD       CDp       Cm    Top Xtr Bot Xtr   Cpmin    Chinge    XCp    
 ------- -------- --------- --------- -------- ------- ------- -------- --------- ---------
   0.000   0.2149   0.00959   0.00471  -0.0501  0.9156  0.9729  -0.4471   0.0000   0.0000   0.0000   0.4822
   0.500   0.3237   0.00915   0.00411  -0.0604  0.9012  0.9899  -0.5350   0.0000   0.0000   0.0000   0.4354
   1.000   0.4024   0.00878   0.00369  -0.0652  0.8708  1.0000  -0.6174   0.0000   0.0000   0.0000   0.4105
   1.500   0.4515   0.00863   0.00338  -0.0638  0.8296  1.0000  -0.6929   0.0000   0.0000   0.0000   0.3896
   2.000   0.4976   0.00870   0.00328  -0.0618  0.7843  1.0000  -0.7823   0.0000   0.0000   0.0000   0.3720
   2.500   0.5455   0.00890   0.00332  -0.0600  0.7357  1.0000  -0.8835   0.0000   0.0000   0.0000   0.3576
   3.000   0.5946   0.00919   0.00344  -0.0584  0.6821  1.0000  -1.0283   0.0000   0.0000   0.0000   0.3454
   3.500   0.6436   0.00957   0.00364  -0.0568  0.6236  1.0000  -1.1884   0.0000   0.0000   0.0000   0.3351
   4.000   0.6916   0.01009   0.00391  -0.0551  0.5594  1.0000  -1.3708   0.0000   0.0000   0.0000   0.3261
   4.500   0.7389   0.01072   0.00457  -0.0533  0.4915  1.0000  -1.7166   0.0000   0.0000   0.0000   0.3182
   5.000   0.7858   0.01140   0.00509  -0.0517  0.4210  1.0000  -2.0732   0.0000   0.0000   0.0000   0.3114
   5.500   0.8302   0.01234   0.00572  -0.0498  0.3390  1.0000  -2.4431   0.0000   0.0000   0.0000   0.3052
   6.000   0.8733   0.01350   0.00653  -0.0479  0.2503  1.0000  -2.9206   0.0000   0.0000   0.0000   0.2996
   6.500   0.9148   0.01499   0.00758  -0.0461  0.1605  1.0000  -3.5218   0.0000   0.0000   0.0000   0.2946
   7.000   0.9553   0.01669   0.00878  -0.0445  0.0879  1.0000  -4.1518   0.0000   0.0000   0.0000   0.2902
   7.500   0.9974   0.01827   0.01027  -0.0427  0.0530  1.0000  -4.7893   0.0000   0.0000   0.0000   0.2860
   8.000   1.0257   0.02182   0.01406  -0.0385  0.0189  1.0000  -4.9890   0.0000   0.0000   0.0000   0.2801
   8.500   1.0574   0.02510   0.01773  -0.0348  0.0154  1.0000  -5.2644   0.0000   0.0000   0.0000   0.2749
   9.000   1.0883   0.02943   0.02253  -0.0312  0.0141  1.0000  -5.5112   0.0000   0.0000   0.0000   0.2701
   9.500   1.1138   0.03522   0.02901  -0.0274  0.0140  1.0000  -5.6829   0.0000   0.0000   0.0000   0.2654
  10.000   1.1215   0.04243   0.03704  -0.0223  0.0144  1.0000  -5.7655   0.0000   0.0000   0.0000   0.2603
  10.500   1.1036   0.04979   0.04510  -0.0158  0.0149  1.0000  -5.7006   0.0000   0.0000   0.0000   0.2542
  11.000   1.0697   0.05738   0.05322  -0.0115  0.0153  1.0000  -5.5744   0.0000   0.0000   0.0000   0.2501
  11.500   1.0299   0.06697   0.06324  -0.0130  0.0156  1.0000  -5.3962   0.0000   0.0000   0.0000   0.2512
  12.000   0.9873   0.07977   0.07639  -0.0206  0.0158  1.0000  -5.1403   0.0000   0.0000   0.0000   0.2587
  12.500   0.9422   0.09829   0.09517  -0.0344  0.0160  1.0000  -4.7024   0.0000   0.0000   0.0000   0.2739
  13.000   0.8934   0.12385   0.12077  -0.0499  0.0168  1.0000  -3.8481   0.0000   0.0000   0.0000   0.2934
  13.500   0.8704   0.14134   0.13819  -0.0587  0.0179  1.0000  -3.3173   0.0000   0.0000   0.0000   0.3050
  14.000   0.8601   0.15438   0.15116  -0.0653  0.0191  1.0000  -2.9960   0.0000   0.0000   0.0000   0.3132
  15.500   0.8632   0.19656   0.19330  -0.0797  0.0363  1.0000  -2.1907   0.0000   0.0000   0.0000   0.3287
  16.000   0.8720   0.20655   0.20329  -0.0843  0.0360  1.0000  -2.1511   0.0000   0.0000   0.0000   0.3325
  16.500   0.8809   0.21485   0.21158  -0.0898  0.0348  1.0000  -2.0961   0.0000   0.0000   0.0000   0.3373
  17.000   0.8869   0.22409   0.22081  -0.0960  0.0314  1.0000  -1.9940   0.0000   0.0000   0.0000   0.3431
  17.500   0.8958   0.23418   0.23090  -0.1003  0.0289  1.0000  -1.9755   0.0000   0.0000   0.0000   0.3461
  18.000   0.9048   0.24422   0.24097  -0.1041  0.0268  1.0000  -1.9812   0.0000   0.0000   0.0000   0.3486
  18.500   0.9137   0.25419   0.25096  -0.1075  0.0252  1.0000  -2.0065   0.0000   0.0000   0.0000   0.3505
  19.000   0.9226   0.26407   0.26086  -0.1105  0.0238  1.0000  -2.0572   0.0000   0.0000   0.0000   0.3519
  19.500   0.9320   0.27403   0.27087  -0.1126  0.0225  1.0000  -2.1510   0.0000   0.0000   0.0000   0.3522
  20.000   0.9333   0.29231   0.28915  -0.1139  0.0208  1.0000  -2.0827   0.0000   0.0000   0.0000   0.3529


