xflr5 v6.61

 Calculated polar for: RG-15 8.9%

 1 1 Reynolds number fixed          Mach number fixed         

 xtrf =   1.000 (top)        1.000 (bottom)
 Mach =   0.000     Re =     0.060 e 6     Ncrit =   9.000

  alpha     CL        CD       CDp       Cm    Top Xtr Bot Xtr   Cpmin    Chinge    XCp    
 ------- -------- --------- --------- -------- ------- ------- -------- --------- ---------
   0.000   0.0079   0.01700   0.00793  -0.0177  1.0000  1.0000  -0.5283   0.0000   0.0000   0.0000   2.4861
   0.500   0.0474   0.01787   0.00863  -0.0178  1.0000  1.0000  -0.3559   0.0000   0.0000   0.0000   0.6218
   1.000   0.0852   0.01901   0.00969  -0.0180  1.0000  1.0000  -0.3874   0.0000   0.0000   0.0000   0.4583
   1.500   0.1922   0.02089   0.01137  -0.0306  0.9672  1.0000  -0.4701   0.0000   0.0000   0.0000   0.4067
   2.000   0.3002   0.02217   0.01277  -0.0421  0.9301  1.0000  -0.5718   0.0000   0.0000   0.0000   0.3876
   2.500   0.3904   0.02289   0.01356  -0.0492  0.8875  1.0000  -0.6823   0.0000   0.0000   0.0000   0.3732
   3.000   0.4858   0.02297   0.01388  -0.0556  0.8441  1.0000  -0.8225   0.0000   0.0000   0.0000   0.3616
   3.500   0.5794   0.02236   0.01357  -0.0598  0.7992  1.0000  -1.0290   0.0000   0.0000   0.0000   0.3502
   4.000   0.6625   0.02135   0.01284  -0.0607  0.7483  1.0000  -1.2469   0.0000   0.0000   0.0000   0.3382
   4.500   0.7233   0.02100   0.01309  -0.0580  0.6859  1.0000  -1.5851   0.0000   0.0000   0.0000   0.3265
   5.000   0.7757   0.02091   0.01305  -0.0541  0.6110  1.0000  -1.9540   0.0000   0.0000   0.0000   0.3157
   5.500   0.8219   0.02139   0.01343  -0.0498  0.5258  1.0000  -2.3190   0.0000   0.0000   0.0000   0.3061
   6.000   0.8626   0.02233   0.01407  -0.0451  0.4269  1.0000  -2.6755   0.0000   0.0000   0.0000   0.2973
   6.500   0.8980   0.02416   0.01544  -0.0405  0.3194  1.0000  -3.0028   0.0000   0.0000   0.0000   0.2895
   7.000   0.9338   0.02727   0.01814  -0.0366  0.2286  1.0000  -3.4359   0.0000   0.0000   0.0000   0.2831
   7.500   0.9705   0.03131   0.02208  -0.0334  0.1660  1.0000  -3.8600   0.0000   0.0000   0.0000   0.2779
   8.000   1.0077   0.03686   0.02797  -0.0302  0.1266  1.0000  -4.1532   0.0000   0.0000   0.0000   0.2729
   8.500   1.0330   0.04264   0.03435  -0.0260  0.0883  1.0000  -4.2863   0.0000   0.0000   0.0000   0.2676
   9.000   1.0432   0.05269   0.04512  -0.0222  0.0791  1.0000  -4.2528   0.0000   0.0000   0.0000   0.2633
  10.000   1.0416   0.06344   0.05669  -0.0149  0.0545  1.0000  -4.5106   0.0000   0.0000   0.0000   0.2553
  10.500   1.0088   0.07138   0.06513  -0.0113  0.0545  1.0000  -4.3838   0.0000   0.0000   0.0000   0.2517
  11.000   0.9674   0.08117   0.07523  -0.0124  0.0554  1.0000  -4.2088   0.0000   0.0000   0.0000   0.2528
  11.500   0.8542   0.11675   0.11080  -0.0394  0.1019  1.0000  -2.9354   0.0000   0.0000   0.0000   0.2865
  12.000   0.8015   0.14383   0.13773  -0.0602  0.1914  1.0000  -2.0894   0.0000   0.0000   0.0000   0.3159
  12.500   0.8026   0.15361   0.14748  -0.0642  0.1904  1.0000  -2.0148   0.0000   0.0000   0.0000   0.3203
  13.000   0.8341   0.16539   0.15934  -0.0633  0.1817  1.0000  -2.1106   0.0000   0.0000   0.0000   0.3158
  13.500   0.8517   0.18407   0.17801  -0.0647  0.1764  1.0000  -2.0986   0.0000   0.0000   0.0000   0.3156
  14.000   0.8192   0.17958   0.17336  -0.0736  0.1682  1.0000  -1.9121   0.0000   0.0000   0.0000   0.3287
  14.500   0.8575   0.19651   0.19035  -0.0701  0.1403  1.0000  -2.0491   0.0000   0.0000   0.0000   0.3202
  15.000   0.8385   0.19517   0.18890  -0.0785  0.1343  1.0000  -1.8841   0.0000   0.0000   0.0000   0.3313
  15.500   0.8556   0.20315   0.19721  -0.0796  0.1149  1.0000  -1.8775   0.0000   0.0000   0.0000   0.3301
  16.000   0.8905   0.22845   0.22260  -0.0775  0.1093  1.0000  -1.9977   0.0000   0.0000   0.0000   0.3239
  16.500   0.8893   0.23361   0.22772  -0.0835  0.1084  1.0000  -1.9137   0.0000   0.0000   0.0000   0.3301
  17.000   0.8746   0.23254   0.22656  -0.0914  0.1047  1.0000  -1.7601   0.0000   0.0000   0.0000   0.3399
  17.500   0.8786   0.23984   0.23385  -0.0963  0.0968  1.0000  -1.7160   0.0000   0.0000   0.0000   0.3444
  18.000   0.8884   0.24934   0.24340  -0.0992  0.0905  1.0000  -1.7316   0.0000   0.0000   0.0000   0.3458
  18.500   0.9032   0.26045   0.25457  -0.1004  0.0853  1.0000  -1.8037   0.0000   0.0000   0.0000   0.3446
  19.000   0.9375   0.28913   0.28333  -0.0986  0.0809  1.0000  -1.9603   0.0000   0.0000   0.0000   0.3383
  19.500   0.9333   0.29457   0.28877  -0.1035  0.0804  1.0000  -1.8738   0.0000   0.0000   0.0000   0.3433
  20.000   0.9195   0.29645   0.29065  -0.1087  0.0793  1.0000  -1.7473   0.0000   0.0000   0.0000   0.3500


