xflr5 v6.61

 Calculated polar for: RG-15 8.9%

 1 1 Reynolds number fixed          Mach number fixed         

 xtrf =   1.000 (top)        1.000 (bottom)
 Mach =   0.000     Re =     0.130 e 6     Ncrit =   9.000

  alpha     CL        CD       CDp       Cm    Top Xtr Bot Xtr   Cpmin    Chinge    XCp    
 ------- -------- --------- --------- -------- ------- ------- -------- --------- ---------
   0.000   0.1532   0.01280   0.00674  -0.0430  0.9421  1.0000  -0.4068   0.0000   0.0000   0.0000   0.5302
   0.500   0.2494   0.01267   0.00643  -0.0512  0.9239  1.0000  -0.4822   0.0000   0.0000   0.0000   0.4541
   1.000   0.3377   0.01229   0.00606  -0.0573  0.9020  1.0000  -0.5649   0.0000   0.0000   0.0000   0.4182
   1.500   0.4116   0.01191   0.00564  -0.0602  0.8727  1.0000  -0.6531   0.0000   0.0000   0.0000   0.3945
   2.000   0.4785   0.01159   0.00528  -0.0614  0.8369  1.0000  -0.7562   0.0000   0.0000   0.0000   0.3762
   2.500   0.5383   0.01145   0.00508  -0.0611  0.7943  1.0000  -0.8666   0.0000   0.0000   0.0000   0.3611
   3.000   0.5935   0.01153   0.00502  -0.0599  0.7448  1.0000  -1.0185   0.0000   0.0000   0.0000   0.3482
   3.500   0.6433   0.01180   0.00518  -0.0579  0.6886  1.0000  -1.1793   0.0000   0.0000   0.0000   0.3370
   4.000   0.6915   0.01217   0.00545  -0.0558  0.6260  1.0000  -1.3559   0.0000   0.0000   0.0000   0.3273
   4.500   0.7390   0.01271   0.00608  -0.0535  0.5577  1.0000  -1.7079   0.0000   0.0000   0.0000   0.3186
   5.000   0.7844   0.01340   0.00661  -0.0512  0.4835  1.0000  -2.0584   0.0000   0.0000   0.0000   0.3110
   5.500   0.8274   0.01434   0.00724  -0.0487  0.4020  1.0000  -2.4204   0.0000   0.0000   0.0000   0.3041
   6.000   0.8683   0.01550   0.00811  -0.0461  0.3109  1.0000  -2.7947   0.0000   0.0000   0.0000   0.2979
   6.500   0.9058   0.01723   0.00939  -0.0434  0.2125  1.0000  -3.3445   0.0000   0.0000   0.0000   0.2921
   7.000   0.9418   0.01968   0.01148  -0.0405  0.1377  1.0000  -3.8710   0.0000   0.0000   0.0000   0.2867
   7.500   0.9792   0.02193   0.01366  -0.0380  0.0906  1.0000  -4.4075   0.0000   0.0000   0.0000   0.2819
   8.000   1.0084   0.02480   0.01651  -0.0351  0.0379  1.0000  -4.8144   0.0000   0.0000   0.0000   0.2774
   8.500   1.0408   0.02850   0.02051  -0.0315  0.0261  1.0000  -5.0359   0.0000   0.0000   0.0000   0.2723
   9.000   1.0685   0.03477   0.02723  -0.0280  0.0218  1.0000  -5.1751   0.0000   0.0000   0.0000   0.2677
   9.500   1.0817   0.04379   0.03717  -0.0238  0.0209  1.0000  -5.1333   0.0000   0.0000   0.0000   0.2631
  10.000   1.0790   0.05144   0.04558  -0.0190  0.0209  1.0000  -5.1192   0.0000   0.0000   0.0000   0.2582
  10.500   1.0626   0.05771   0.05238  -0.0137  0.0211  1.0000  -5.1406   0.0000   0.0000   0.0000   0.2530
  11.000   1.0382   0.06420   0.05930  -0.0109  0.0214  1.0000  -5.1330   0.0000   0.0000   0.0000   0.2499
  11.500   1.0095   0.07234   0.06782  -0.0124  0.0217  1.0000  -5.0702   0.0000   0.0000   0.0000   0.2510
  12.000   0.9762   0.08317   0.07899  -0.0187  0.0221  1.0000  -4.9144   0.0000   0.0000   0.0000   0.2572
  12.500   0.9363   0.09960   0.09573  -0.0313  0.0228  1.0000  -4.5440   0.0000   0.0000   0.0000   0.2709
  13.000   0.8655   0.13406   0.13018  -0.0526  0.0274  1.0000  -3.1807   0.0000   0.0000   0.0000   0.2989
  13.500   0.8519   0.14896   0.14499  -0.0600  0.0299  1.0000  -2.7936   0.0000   0.0000   0.0000   0.3085
  14.000   0.8491   0.16028   0.15625  -0.0652  0.0329  1.0000  -2.5758   0.0000   0.0000   0.0000   0.3145
  15.000   0.8577   0.19148   0.18745  -0.0729  0.0564  1.0000  -2.1247   0.0000   0.0000   0.0000   0.3221
  15.500   0.8651   0.20072   0.19669  -0.0779  0.0559  1.0000  -2.0755   0.0000   0.0000   0.0000   0.3267
  16.000   0.8652   0.20665   0.20257  -0.0859  0.0523  1.0000  -1.9324   0.0000   0.0000   0.0000   0.3354
  16.500   0.8723   0.21585   0.21176  -0.0909  0.0481  1.0000  -1.8895   0.0000   0.0000   0.0000   0.3397
  17.000   0.8816   0.22535   0.22128  -0.0947  0.0449  1.0000  -1.8937   0.0000   0.0000   0.0000   0.3424
  17.500   0.8918   0.23485   0.23080  -0.0980  0.0423  1.0000  -1.9250   0.0000   0.0000   0.0000   0.3442
  18.000   0.9034   0.24446   0.24045  -0.1005  0.0401  1.0000  -1.9958   0.0000   0.0000   0.0000   0.3449
  18.500   0.9218   0.25648   0.25254  -0.1005  0.0379  1.0000  -2.1713   0.0000   0.0000   0.0000   0.3419
  19.000   0.9244   0.27480   0.27083  -0.1037  0.0365  1.0000  -2.0699   0.0000   0.0000   0.0000   0.3446
  19.500   0.9294   0.28516   0.28121  -0.1075  0.0364  1.0000  -2.0211   0.0000   0.0000   0.0000   0.3475
  20.000   0.9325   0.29485   0.29093  -0.1113  0.0361  1.0000  -1.9657   0.0000   0.0000   0.0000   0.3505


