xflr5 v6.61

 Calculated polar for: RG-15 8.9%

 1 1 Reynolds number fixed          Mach number fixed         

 xtrf =   1.000 (top)        1.000 (bottom)
 Mach =   0.000     Re =     0.001 e 6     Ncrit =   9.000

  alpha     CL        CD       CDp       Cm    Top Xtr Bot Xtr   Cpmin    Chinge    XCp    
 ------- -------- --------- --------- -------- ------- ------- -------- --------- ---------
   0.000   0.0231   0.16272   0.03705  -0.0188  1.0000  1.0000  -0.3452   0.0000   0.0000   0.0000   1.0702
   0.500   0.0565   0.16268   0.03625  -0.0180  1.0000  1.0000  -0.3701   0.0000   0.0000   0.0000   0.5684
   1.000   0.0893   0.16281   0.03593  -0.0171  1.0000  1.0000  -0.3961   0.0000   0.0000   0.0000   0.4402
   1.500   0.1215   0.16310   0.03607  -0.0163  1.0000  1.0000  -0.4244   0.0000   0.0000   0.0000   0.3818
   2.000   0.1529   0.16355   0.03672  -0.0155  1.0000  1.0000  -0.4545   0.0000   0.0000   0.0000   0.3484
   2.500   0.1835   0.16417   0.03802  -0.0146  1.0000  1.0000  -0.4867   0.0000   0.0000   0.0000   0.3264
   3.000   0.2121   0.16489   0.03933  -0.0141  1.0000  1.0000  -0.5207   0.0000   0.0000   0.0000   0.3128
   3.500   0.2407   0.16579   0.04107  -0.0132  1.0000  1.0000  -0.5565   0.0000   0.0000   0.0000   0.3011
   4.000   0.2682   0.16684   0.04324  -0.0124  1.0000  1.0000  -0.5954   0.0000   0.0000   0.0000   0.2920
   4.500   0.2949   0.16814   0.04585  -0.0116  1.0000  1.0000  -0.6364   0.0000   0.0000   0.0000   0.2849
   5.000   0.3211   0.16985   0.04892  -0.0109  1.0000  1.0000  -0.6813   0.0000   0.0000   0.0000   0.2794
   5.500   0.3467   0.17190   0.05242  -0.0104  1.0000  1.0000  -0.7310   0.0000   0.0000   0.0000   0.2751
   6.000   0.3715   0.17427   0.05629  -0.0101  1.0000  1.0000  -0.7805   0.0000   0.0000   0.0000   0.2717
   6.500   0.3953   0.17691   0.06052  -0.0098  1.0000  1.0000  -0.8398   0.0000   0.0000   0.0000   0.2691
   7.000   0.4180   0.17988   0.06511  -0.0098  1.0000  1.0000  -0.8964   0.0000   0.0000   0.0000   0.2672
   7.500   0.4398   0.18316   0.07003  -0.0099  1.0000  1.0000  -0.9564   0.0000   0.0000   0.0000   0.2660
   8.000   0.4605   0.18675   0.07522  -0.0102  1.0000  1.0000  -1.0237   0.0000   0.0000   0.0000   0.2652
   8.500   0.4806   0.19028   0.08152  -0.0106  1.0000  1.0000  -1.0850   0.0000   0.0000   0.0000   0.2651
   9.000   0.4987   0.19433   0.08713  -0.0115  1.0000  1.0000  -1.1418   0.0000   0.0000   0.0000   0.2656
   9.500   0.5158   0.19868   0.09303  -0.0125  1.0000  1.0000  -1.1943   0.0000   0.0000   0.0000   0.2664
  10.000   0.5321   0.20330   0.09919  -0.0138  1.0000  1.0000  -1.2530   0.0000   0.0000   0.0000   0.2676
  10.500   0.5476   0.20821   0.10561  -0.0153  1.0000  1.0000  -1.3174   0.0000   0.0000   0.0000   0.2692
  11.000   0.5623   0.21339   0.11226  -0.0170  1.0000  1.0000  -1.3768   0.0000   0.0000   0.0000   0.2710
  11.500   0.5764   0.21884   0.11914  -0.0189  1.0000  1.0000  -1.4310   0.0000   0.0000   0.0000   0.2731
  12.000   0.5899   0.22454   0.12622  -0.0210  1.0000  1.0000  -1.4797   0.0000   0.0000   0.0000   0.2755
  12.500   0.6029   0.23049   0.13350  -0.0233  1.0000  1.0000  -1.5228   0.0000   0.0000   0.0000   0.2780
  13.000   0.6155   0.23667   0.14097  -0.0258  1.0000  1.0000  -1.5899   0.0000   0.0000   0.0000   0.2807
  13.500   0.6276   0.24305   0.14860  -0.0284  1.0000  1.0000  -1.6544   0.0000   0.0000   0.0000   0.2836
  14.000   0.6394   0.24964   0.15637  -0.0312  1.0000  1.0000  -1.7127   0.0000   0.0000   0.0000   0.2865
  14.500   0.6508   0.25643   0.16431  -0.0340  1.0000  1.0000  -1.7645   0.0000   0.0000   0.0000   0.2895
  15.000   0.6618   0.26341   0.17240  -0.0369  1.0000  1.0000  -1.8098   0.0000   0.0000   0.0000   0.2925
  15.500   0.6724   0.27057   0.18064  -0.0399  1.0000  1.0000  -1.8486   0.0000   0.0000   0.0000   0.2955
  16.000   0.6826   0.27790   0.18901  -0.0429  1.0000  1.0000  -1.8810   0.0000   0.0000   0.0000   0.2985
  16.500   0.6933   0.28548   0.20063  -0.0455  1.0000  1.0000  -1.9222   0.0000   0.0000   0.0000   0.3008
  17.000   0.7025   0.29297   0.20914  -0.0486  1.0000  1.0000  -1.9394   0.0000   0.0000   0.0000   0.3038
  17.500   0.7110   0.30055   0.21775  -0.0516  1.0000  1.0000  -1.9526   0.0000   0.0000   0.0000   0.3067
  18.000   0.7190   0.30821   0.22645  -0.0546  1.0000  1.0000  -1.9610   0.0000   0.0000   0.0000   0.3095
  18.500   0.7262   0.31589   0.23519  -0.0575  1.0000  1.0000  -1.9645   0.0000   0.0000   0.0000   0.3122
  19.000   0.7327   0.32354   0.24391  -0.0604  1.0000  1.0000  -1.9630   0.0000   0.0000   0.0000   0.3148
  19.500   0.7384   0.33111   0.25256  -0.0631  1.0000  1.0000  -1.9563   0.0000   0.0000   0.0000   0.3174
  20.000   0.7432   0.33853   0.26109  -0.0658  1.0000  1.0000  -1.9446   0.0000   0.0000   0.0000   0.3198


