xflr5 v6.61

 Calculated polar for: RG-15 8.9%

 1 1 Reynolds number fixed          Mach number fixed         

 xtrf =   1.000 (top)        1.000 (bottom)
 Mach =   0.000     Re =     0.030 e 6     Ncrit =   9.000

  alpha     CL        CD       CDp       Cm    Top Xtr Bot Xtr   Cpmin    Chinge    XCp    
 ------- -------- --------- --------- -------- ------- ------- -------- --------- ---------
   0.000   0.0112   0.02197   0.00885  -0.0170  1.0000  1.0000  -0.4880   0.0000   0.0000   0.0000   1.7670
   0.500   0.0496   0.02264   0.00930  -0.0165  1.0000  1.0000  -0.3605   0.0000   0.0000   0.0000   0.5790
   1.000   0.0872   0.02354   0.01009  -0.0161  1.0000  1.0000  -0.3928   0.0000   0.0000   0.0000   0.4320
   1.500   0.1232   0.02469   0.01121  -0.0160  1.0000  1.0000  -0.4291   0.0000   0.0000   0.0000   0.3768
   2.000   0.1578   0.02613   0.01236  -0.0162  1.0000  1.0000  -0.4660   0.0000   0.0000   0.0000   0.3489
   2.500   0.1903   0.02791   0.01410  -0.0167  1.0000  1.0000  -0.5044   0.0000   0.0000   0.0000   0.3337
   3.000   0.2210   0.03002   0.01640  -0.0175  1.0000  1.0000  -0.5471   0.0000   0.0000   0.0000   0.3252
   3.500   0.2490   0.03259   0.01902  -0.0188  1.0000  1.0000  -0.5874   0.0000   0.0000   0.0000   0.3209
   4.000   0.3439   0.03724   0.02395  -0.0328  0.9566  1.0000  -0.7019   0.0000   0.0000   0.0000   0.3409
   4.500   0.4495   0.04146   0.02865  -0.0461  0.8838  1.0000  -0.8730   0.0000   0.0000   0.0000   0.3481
   5.000   0.5426   0.04490   0.03267  -0.0544  0.8093  1.0000  -1.0697   0.0000   0.0000   0.0000   0.3458
   5.500   0.6367   0.04731   0.03580  -0.0590  0.7276  1.0000  -1.3333   0.0000   0.0000   0.0000   0.3381
   6.000   0.7376   0.04730   0.03729  -0.0580  0.6300  1.0000  -1.8820   0.0000   0.0000   0.0000   0.3240
   6.500   0.8681   0.04202   0.03262  -0.0486  0.4968  1.0000  -2.5978   0.0000   0.0000   0.0000   0.3010
   7.000   0.9115   0.04408   0.03466  -0.0408  0.3944  1.0000  -2.8957   0.0000   0.0000   0.0000   0.2894
   7.500   0.9382   0.04790   0.03866  -0.0348  0.3165  1.0000  -3.0817   0.0000   0.0000   0.0000   0.2812
   8.000   0.9457   0.05685   0.04811  -0.0320  0.2849  1.0000  -3.1374   0.0000   0.0000   0.0000   0.2777
   8.500   0.9555   0.06411   0.05555  -0.0284  0.2477  1.0000  -3.2863   0.0000   0.0000   0.0000   0.2731
   9.000   0.8811   0.08017   0.07181  -0.0339  0.2736  1.0000  -2.8012   0.0000   0.0000   0.0000   0.2817
   9.500   0.8546   0.09263   0.08418  -0.0385  0.2680  1.0000  -2.6460   0.0000   0.0000   0.0000   0.2879
  10.000   0.8271   0.10574   0.09712  -0.0450  0.2682  1.0000  -2.4497   0.0000   0.0000   0.0000   0.2968
  10.500   0.8049   0.11771   0.10895  -0.0509  0.2708  1.0000  -2.2798   0.0000   0.0000   0.0000   0.3053
  11.000   0.7224   0.13814   0.12903  -0.0763  0.5087  1.0000  -1.7458   0.0000   0.0000   0.0000   0.3472
  11.500   0.7868   0.15667   0.14790  -0.0770  0.4490  1.0000  -1.8309   0.0000   0.0000   0.0000   0.3394
  12.000   0.7587   0.15818   0.14925  -0.0776  0.4403  1.0000  -1.7311   0.0000   0.0000   0.0000   0.3431
  12.500   0.7604   0.16184   0.15295  -0.0780  0.4111  1.0000  -1.7265   0.0000   0.0000   0.0000   0.3429
  13.000   0.7993   0.18208   0.17331  -0.0806  0.3944  1.0000  -1.7920   0.0000   0.0000   0.0000   0.3409
  13.500   0.8197   0.19216   0.18342  -0.0796  0.3468  1.0000  -1.8383   0.0000   0.0000   0.0000   0.3368
  14.000   0.7919   0.18420   0.17533  -0.0814  0.3243  1.0000  -1.7442   0.0000   0.0000   0.0000   0.3418
  14.500   0.8644   0.21987   0.21122  -0.0817  0.3020  1.0000  -1.9129   0.0000   0.0000   0.0000   0.3335
  15.000   0.8234   0.20517   0.19631  -0.0853  0.2950  1.0000  -1.7718   0.0000   0.0000   0.0000   0.3416
  15.500   0.8281   0.20936   0.20051  -0.0877  0.2741  1.0000  -1.7546   0.0000   0.0000   0.0000   0.3433
  16.000   0.8880   0.24569   0.23744  -0.0876  0.2574  1.0000  -1.8278   0.0000   0.0000   0.0000   0.3361
  16.500   0.8543   0.23159   0.22316  -0.0922  0.2511  1.0000  -1.6965   0.0000   0.0000   0.0000   0.3444
  17.000   0.8578   0.23652   0.22811  -0.0953  0.2336  1.0000  -1.6557   0.0000   0.0000   0.0000   0.3468
  17.500   0.9233   0.27810   0.26991  -0.0939  0.2159  1.0000  -1.8051   0.0000   0.0000   0.0000   0.3374
  18.000   0.8950   0.26718   0.25887  -0.0985  0.2135  1.0000  -1.6823   0.0000   0.0000   0.0000   0.3448
  18.500   0.8827   0.26528   0.25694  -0.1030  0.2000  1.0000  -1.6039   0.0000   0.0000   0.0000   0.3506
  19.000   0.9316   0.29801   0.28982  -0.1012  0.1766  1.0000  -1.7682   0.0000   0.0000   0.0000   0.3423
  19.500   0.9054   0.29062   0.28238  -0.1058  0.1735  1.0000  -1.6395   0.0000   0.0000   0.0000   0.3497
  20.000   0.8965   0.29362   0.28542  -0.1094  0.1620  1.0000  -1.5716   0.0000   0.0000   0.0000   0.3540


