xflr5 v6.61

 Calculated polar for: RG-15 8.9%

 1 1 Reynolds number fixed          Mach number fixed         

 xtrf =   1.000 (top)        1.000 (bottom)
 Mach =   0.000     Re =     0.207 e 6     Ncrit =   9.000

  alpha     CL        CD       CDp       Cm    Top Xtr Bot Xtr   Cpmin    Chinge    XCp    
 ------- -------- --------- --------- -------- ------- ------- -------- --------- ---------
   0.000   0.2119   0.00936   0.00454  -0.0493  0.9120  0.9670  -0.4457   0.0000   0.0000   0.0000   0.4818
   0.100   0.2320   0.00929   0.00447  -0.0510  0.9094  0.9719  -0.4606   0.0000   0.0000   0.0000   0.4690
   0.200   0.2537   0.00922   0.00436  -0.0530  0.9069  0.9754  -0.4780   0.0000   0.0000   0.0000   0.4581
   0.300   0.2752   0.00914   0.00419  -0.0550  0.9042  0.9791  -0.4958   0.0000   0.0000   0.0000   0.4489
   0.400   0.2968   0.00904   0.00408  -0.0570  0.9013  0.9825  -0.5139   0.0000   0.0000   0.0000   0.4410
   0.500   0.3186   0.00895   0.00396  -0.0591  0.8983  0.9852  -0.5322   0.0000   0.0000   0.0000   0.4342
   0.600   0.3367   0.00890   0.00391  -0.0605  0.8920  0.9894  -0.5483   0.0000   0.0000   0.0000   0.4286
   0.700   0.3559   0.00883   0.00387  -0.0622  0.8862  0.9935  -0.5674   0.0000   0.0000   0.0000   0.4235
   0.800   0.3749   0.00875   0.00379  -0.0638  0.8807  0.9974  -0.5865   0.0000   0.0000   0.0000   0.4190
   0.900   0.3935   0.00866   0.00367  -0.0653  0.8748  1.0000  -0.6056   0.0000   0.0000   0.0000   0.4147
   1.000   0.4075   0.00859   0.00356  -0.0659  0.8683  1.0000  -0.6214   0.0000   0.0000   0.0000   0.4102
   1.100   0.4175   0.00855   0.00349  -0.0657  0.8605  1.0000  -0.6359   0.0000   0.0000   0.0000   0.4058
   1.200   0.4226   0.00854   0.00347  -0.0646  0.8505  1.0000  -0.6473   0.0000   0.0000   0.0000   0.4013
   1.300   0.4317   0.00850   0.00341  -0.0642  0.8416  1.0000  -0.6620   0.0000   0.0000   0.0000   0.3971
   1.400   0.4427   0.00847   0.00333  -0.0641  0.8336  1.0000  -0.6785   0.0000   0.0000   0.0000   0.3931
   1.500   0.4545   0.00847   0.00327  -0.0642  0.8263  1.0000  -0.6957   0.0000   0.0000   0.0000   0.3895
   1.600   0.4598   0.00848   0.00329  -0.0631  0.8171  1.0000  -0.7091   0.0000   0.0000   0.0000   0.3855
   1.700   0.4676   0.00849   0.00328  -0.0625  0.8075  1.0000  -0.7257   0.0000   0.0000   0.0000   0.3818
   1.800   0.4772   0.00850   0.00324  -0.0621  0.7980  1.0000  -0.7443   0.0000   0.0000   0.0000   0.3783
   1.900   0.4882   0.00852   0.00319  -0.0620  0.7890  1.0000  -0.7642   0.0000   0.0000   0.0000   0.3750
   2.000   0.4971   0.00855   0.00320  -0.0616  0.7801  1.0000  -0.7821   0.0000   0.0000   0.0000   0.3718
   2.100   0.5056   0.00858   0.00322  -0.0611  0.7702  1.0000  -0.7997   0.0000   0.0000   0.0000   0.3686
   2.200   0.5153   0.00861   0.00322  -0.0607  0.7603  1.0000  -0.8186   0.0000   0.0000   0.0000   0.3656
   2.300   0.5257   0.00866   0.00320  -0.0605  0.7505  1.0000  -0.8384   0.0000   0.0000   0.0000   0.3628
   2.400   0.5363   0.00873   0.00320  -0.0603  0.7408  1.0000  -0.8605   0.0000   0.0000   0.0000   0.3601
   2.500   0.5453   0.00876   0.00324  -0.0599  0.7311  1.0000  -0.8836   0.0000   0.0000   0.0000   0.3574
   2.600   0.5549   0.00880   0.00326  -0.0595  0.7202  1.0000  -0.9076   0.0000   0.0000   0.0000   0.3548
   2.700   0.5649   0.00886   0.00326  -0.0592  0.7090  1.0000  -0.9349   0.0000   0.0000   0.0000   0.3522
   2.800   0.5752   0.00895   0.00326  -0.0589  0.6979  1.0000  -0.9667   0.0000   0.0000   0.0000   0.3498
   2.900   0.5849   0.00900   0.00331  -0.0586  0.6883  1.0000  -0.9976   0.0000   0.0000   0.0000   0.3476
   3.000   0.5945   0.00905   0.00335  -0.0583  0.6772  1.0000  -1.0286   0.0000   0.0000   0.0000   0.3453
   3.100   0.6043   0.00912   0.00338  -0.0580  0.6651  1.0000  -1.0602   0.0000   0.0000   0.0000   0.3431
   3.200   0.6142   0.00923   0.00339  -0.0576  0.6528  1.0000  -1.0922   0.0000   0.0000   0.0000   0.3409
   3.300   0.6240   0.00931   0.00345  -0.0573  0.6421  1.0000  -1.1243   0.0000   0.0000   0.0000   0.3389
   3.400   0.6338   0.00937   0.00351  -0.0571  0.6309  1.0000  -1.1564   0.0000   0.0000   0.0000   0.3370
   3.500   0.6435   0.00945   0.00355  -0.0567  0.6187  1.0000  -1.1888   0.0000   0.0000   0.0000   0.3350
   3.600   0.6531   0.00957   0.00359  -0.0563  0.6057  1.0000  -1.2212   0.0000   0.0000   0.0000   0.3331
   3.700   0.6628   0.00968   0.00365  -0.0560  0.5936  1.0000  -1.2540   0.0000   0.0000   0.0000   0.3313
   3.800   0.6726   0.00974   0.00372  -0.0558  0.5815  1.0000  -1.2870   0.0000   0.0000   0.0000   0.3296
   3.900   0.6821   0.00984   0.00377  -0.0554  0.5680  1.0000  -1.3200   0.0000   0.0000   0.0000   0.3278
   4.000   0.6914   0.00999   0.00383  -0.0550  0.5541  1.0000  -1.3709   0.0000   0.0000   0.0000   0.3261
   4.100   0.7013   0.01009   0.00414  -0.0547  0.5431  1.0000  -1.4511   0.0000   0.0000   0.0000   0.3244
   4.200   0.7111   0.01017   0.00423  -0.0544  0.5302  1.0000  -1.5161   0.0000   0.0000   0.0000   0.3229
   4.300   0.7204   0.01030   0.00431  -0.0541  0.5152  1.0000  -1.5820   0.0000   0.0000   0.0000   0.3213
   4.400   0.7292   0.01049   0.00439  -0.0536  0.4993  1.0000  -1.6474   0.0000   0.0000   0.0000   0.3197
   4.500   0.7391   0.01058   0.00449  -0.0533  0.4871  1.0000  -1.7175   0.0000   0.0000   0.0000   0.3183
   4.600   0.7487   0.01069   0.00458  -0.0531  0.4731  1.0000  -1.7877   0.0000   0.0000   0.0000   0.3169
   4.700   0.7577   0.01086   0.00467  -0.0527  0.4588  1.0000  -1.8572   0.0000   0.0000   0.0000   0.3154
   4.800   0.7668   0.01104   0.00479  -0.0523  0.4447  1.0000  -1.9272   0.0000   0.0000   0.0000   0.3140
   4.900   0.7767   0.01113   0.00490  -0.0521  0.4319  1.0000  -2.0013   0.0000   0.0000   0.0000   0.3128
   5.000   0.7858   0.01129   0.00500  -0.0517  0.4158  1.0000  -2.0736   0.0000   0.0000   0.0000   0.3115
   5.100   0.7939   0.01153   0.00512  -0.0512  0.3978  1.0000  -2.1433   0.0000   0.0000   0.0000   0.3100
   5.200   0.8038   0.01164   0.00524  -0.0510  0.3839  1.0000  -2.2200   0.0000   0.0000   0.0000   0.3089
   5.300   0.8127   0.01183   0.00535  -0.0506  0.3664  1.0000  -2.2941   0.0000   0.0000   0.0000   0.3076
   5.400   0.8208   0.01208   0.00549  -0.0501  0.3483  1.0000  -2.3660   0.0000   0.0000   0.0000   0.3063
   5.500   0.8306   0.01221   0.00563  -0.0499  0.3342  1.0000  -2.4449   0.0000   0.0000   0.0000   0.3053
   5.600   0.8391   0.01244   0.00577  -0.0495  0.3161  1.0000  -2.5202   0.0000   0.0000   0.0000   0.3041
   5.700   0.8476   0.01268   0.00593  -0.0491  0.2985  1.0000  -2.5957   0.0000   0.0000   0.0000   0.3029
   5.800   0.8568   0.01287   0.00608  -0.0488  0.2814  1.0000  -2.6953   0.0000   0.0000   0.0000   0.3019
   5.900   0.8646   0.01318   0.00625  -0.0484  0.2617  1.0000  -2.8076   0.0000   0.0000   0.0000   0.3007
   6.000   0.8739   0.01337   0.00643  -0.0481  0.2462  1.0000  -2.9305   0.0000   0.0000   0.0000   0.2998
   6.100   0.8822   0.01365   0.00662  -0.0477  0.2283  1.0000  -3.0484   0.0000   0.0000   0.0000   0.2987
   6.200   0.8905   0.01394   0.00683  -0.0474  0.2105  1.0000  -3.1677   0.0000   0.0000   0.0000   0.2977
   6.300   0.8989   0.01423   0.00702  -0.0470  0.1916  1.0000  -3.2895   0.0000   0.0000   0.0000   0.2967
   6.400   0.9068   0.01457   0.00726  -0.0466  0.1723  1.0000  -3.4086   0.0000   0.0000   0.0000   0.2957
   6.500   0.9150   0.01490   0.00746  -0.0463  0.1539  1.0000  -3.5321   0.0000   0.0000   0.0000   0.2948
   6.600   0.9231   0.01524   0.00770  -0.0459  0.1365  1.0000  -3.6553   0.0000   0.0000   0.0000   0.2938
   6.700   0.9312   0.01557   0.00792  -0.0456  0.1208  1.0000  -3.7816   0.0000   0.0000   0.0000   0.2930
   6.800   0.9392   0.01592   0.00818  -0.0453  0.1063  1.0000  -3.9069   0.0000   0.0000   0.0000   0.2921
   6.900   0.9480   0.01620   0.00839  -0.0450  0.0950  1.0000  -4.0398   0.0000   0.0000   0.0000   0.2913
   7.000   0.9556   0.01661   0.00869  -0.0446  0.0832  1.0000  -4.1630   0.0000   0.0000   0.0000   0.2903
   7.100   0.9648   0.01683   0.00894  -0.0444  0.0774  1.0000  -4.2966   0.0000   0.0000   0.0000   0.2895
   7.200   0.9737   0.01709   0.00919  -0.0441  0.0711  1.0000  -4.4299   0.0000   0.0000   0.0000   0.2887
   7.300   0.9817   0.01745   0.00948  -0.0437  0.0631  1.0000  -4.5576   0.0000   0.0000   0.0000   0.2879
   7.400   0.9896   0.01785   0.00984  -0.0433  0.0559  1.0000  -4.6769   0.0000   0.0000   0.0000   0.2870
   7.500   0.9988   0.01806   0.01011  -0.0430  0.0514  1.0000  -4.8101   0.0000   0.0000   0.0000   0.2862
   7.600   1.0069   0.01842   0.01043  -0.0427  0.0449  1.0000  -4.9308   0.0000   0.0000   0.0000   0.2854
   7.700   1.0118   0.01927   0.01138  -0.0417  0.0276  1.0000  -4.9330   0.0000   0.0000   0.0000   0.2841
   7.800   1.0126   0.02064   0.01278  -0.0400  0.0206  1.0000  -4.8681   0.0000   0.0000   0.0000   0.2823
   7.900   1.0207   0.02101   0.01321  -0.0395  0.0194  1.0000  -4.9500   0.0000   0.0000   0.0000   0.2814
   8.000   1.0277   0.02152   0.01380  -0.0389  0.0181  1.0000  -5.0138   0.0000   0.0000   0.0000   0.2804
   8.100   1.0343   0.02209   0.01445  -0.0381  0.0171  1.0000  -5.0718   0.0000   0.0000   0.0000   0.2793
   8.200   1.0408   0.02270   0.01514  -0.0374  0.0163  1.0000  -5.1283   0.0000   0.0000   0.0000   0.2783
   8.300   1.0470   0.02335   0.01586  -0.0366  0.0157  1.0000  -5.1844   0.0000   0.0000   0.0000   0.2772
   8.400   1.0531   0.02403   0.01662  -0.0359  0.0151  1.0000  -5.2404   0.0000   0.0000   0.0000   0.2762
   8.500   1.0593   0.02474   0.01740  -0.0351  0.0147  1.0000  -5.2964   0.0000   0.0000   0.0000   0.2752
   8.600   1.0655   0.02548   0.01823  -0.0344  0.0144  1.0000  -5.3520   0.0000   0.0000   0.0000   0.2742
   8.700   1.0716   0.02627   0.01910  -0.0337  0.0141  1.0000  -5.4062   0.0000   0.0000   0.0000   0.2732
   8.800   1.0778   0.02710   0.02001  -0.0330  0.0139  1.0000  -5.4590   0.0000   0.0000   0.0000   0.2722
   8.900   1.0839   0.02798   0.02099  -0.0322  0.0137  1.0000  -5.5095   0.0000   0.0000   0.0000   0.2713
   9.000   1.0899   0.02891   0.02203  -0.0315  0.0136  1.0000  -5.5570   0.0000   0.0000   0.0000   0.2703
   9.100   1.0958   0.02991   0.02314  -0.0308  0.0135  1.0000  -5.6010   0.0000   0.0000   0.0000   0.2694
   9.200   1.1014   0.03096   0.02432  -0.0301  0.0134  1.0000  -5.6406   0.0000   0.0000   0.0000   0.2685
   9.300   1.1067   0.03208   0.02557  -0.0293  0.0134  1.0000  -5.6751   0.0000   0.0000   0.0000   0.2676
   9.400   1.1116   0.03327   0.02691  -0.0285  0.0134  1.0000  -5.7045   0.0000   0.0000   0.0000   0.2666
   9.500   1.1159   0.03454   0.02832  -0.0277  0.0134  1.0000  -5.7456   0.0000   0.0000   0.0000   0.2657
   9.600   1.1194   0.03586   0.02981  -0.0268  0.0135  1.0000  -5.7790   0.0000   0.0000   0.0000   0.2647
   9.700   1.1222   0.03725   0.03136  -0.0259  0.0136  1.0000  -5.8043   0.0000   0.0000   0.0000   0.2637
   9.800   1.1241   0.03870   0.03297  -0.0249  0.0136  1.0000  -5.8218   0.0000   0.0000   0.0000   0.2627
   9.900   1.1250   0.04019   0.03463  -0.0238  0.0137  1.0000  -5.8319   0.0000   0.0000   0.0000   0.2616
  10.000   1.1249   0.04171   0.03631  -0.0227  0.0139  1.0000  -5.8354   0.0000   0.0000   0.0000   0.2605
  10.100   1.1239   0.04324   0.03801  -0.0216  0.0140  1.0000  -5.8330   0.0000   0.0000   0.0000   0.2594
  10.200   1.1215   0.04480   0.03972  -0.0203  0.0141  1.0000  -5.8210   0.0000   0.0000   0.0000   0.2583
  10.300   1.1177   0.04626   0.04133  -0.0189  0.0142  1.0000  -5.8050   0.0000   0.0000   0.0000   0.2570
  10.400   1.1131   0.04771   0.04291  -0.0175  0.0143  1.0000  -5.7862   0.0000   0.0000   0.0000   0.2557
  10.500   1.1077   0.04916   0.04448  -0.0162  0.0144  1.0000  -5.7650   0.0000   0.0000   0.0000   0.2544
  10.600   1.1018   0.05061   0.04605  -0.0149  0.0145  1.0000  -5.7416   0.0000   0.0000   0.0000   0.2533
  10.700   1.0953   0.05208   0.04763  -0.0138  0.0146  1.0000  -5.7164   0.0000   0.0000   0.0000   0.2522
  10.800   1.0884   0.05360   0.04926  -0.0129  0.0147  1.0000  -5.6893   0.0000   0.0000   0.0000   0.2513
  10.900   1.0813   0.05518   0.05094  -0.0121  0.0148  1.0000  -5.6604   0.0000   0.0000   0.0000   0.2506
  11.000   1.0737   0.05679   0.05265  -0.0116  0.0149  1.0000  -5.6301   0.0000   0.0000   0.0000   0.2501
  11.100   1.0660   0.05848   0.05444  -0.0113  0.0149  1.0000  -5.5979   0.0000   0.0000   0.0000   0.2498
  11.200   1.0581   0.06028   0.05633  -0.0113  0.0150  1.0000  -5.5638   0.0000   0.0000   0.0000   0.2497
  11.300   1.0501   0.06218   0.05832  -0.0115  0.0151  1.0000  -5.5274   0.0000   0.0000   0.0000   0.2498
  11.400   1.0420   0.06420   0.06042  -0.0120  0.0151  1.0000  -5.4888   0.0000   0.0000   0.0000   0.2503
  11.500   1.0338   0.06634   0.06264  -0.0128  0.0152  1.0000  -5.4476   0.0000   0.0000   0.0000   0.2509
  11.600   1.0255   0.06860   0.06498  -0.0138  0.0152  1.0000  -5.4037   0.0000   0.0000   0.0000   0.2519
  11.700   1.0170   0.07099   0.06744  -0.0151  0.0153  1.0000  -5.3567   0.0000   0.0000   0.0000   0.2531
  11.800   1.0084   0.07348   0.07000  -0.0165  0.0153  1.0000  -5.3065   0.0000   0.0000   0.0000   0.2545
  11.900   0.9997   0.07615   0.07274  -0.0182  0.0153  1.0000  -5.2521   0.0000   0.0000   0.0000   0.2562
  12.000   0.9910   0.07903   0.07568  -0.0202  0.0154  1.0000  -5.1923   0.0000   0.0000   0.0000   0.2583
  12.100   0.9823   0.08215   0.07886  -0.0225  0.0154  1.0000  -5.1262   0.0000   0.0000   0.0000   0.2606
  12.200   0.9735   0.08550   0.08228  -0.0250  0.0154  1.0000  -5.0525   0.0000   0.0000   0.0000   0.2633
  12.300   0.9646   0.08912   0.08595  -0.0277  0.0155  1.0000  -4.9693   0.0000   0.0000   0.0000   0.2662
  12.400   0.9554   0.09306   0.08993  -0.0307  0.0155  1.0000  -4.8738   0.0000   0.0000   0.0000   0.2695
  12.500   0.9459   0.09734   0.09426  -0.0338  0.0156  1.0000  -4.7624   0.0000   0.0000   0.0000   0.2731
  12.600   0.9360   0.10201   0.09897  -0.0372  0.0156  1.0000  -4.6302   0.0000   0.0000   0.0000   0.2770
  12.700   0.9256   0.10712   0.10410  -0.0406  0.0157  1.0000  -4.4716   0.0000   0.0000   0.0000   0.2812
  12.800   0.9148   0.11261   0.10961  -0.0440  0.0159  1.0000  -4.2837   0.0000   0.0000   0.0000   0.2855
  12.900   0.9042   0.11830   0.11530  -0.0472  0.0161  1.0000  -4.0720   0.0000   0.0000   0.0000   0.2897
  13.000   0.8953   0.12345   0.12043  -0.0498  0.0164  1.0000  -3.8779   0.0000   0.0000   0.0000   0.2932
  13.100   0.8885   0.12772   0.12469  -0.0520  0.0166  1.0000  -3.7299   0.0000   0.0000   0.0000   0.2961
  13.200   0.8830   0.13152   0.12846  -0.0539  0.0168  1.0000  -3.6071   0.0000   0.0000   0.0000   0.2986
  13.300   0.8784   0.13500   0.13193  -0.0557  0.0171  1.0000  -3.5008   0.0000   0.0000   0.0000   0.3009
  13.400   0.8745   0.13825   0.13516  -0.0573  0.0173  1.0000  -3.4067   0.0000   0.0000   0.0000   0.3031
  13.500   0.8713   0.14132   0.13822  -0.0588  0.0175  1.0000  -3.3224   0.0000   0.0000   0.0000   0.3050
  13.600   0.8686   0.14424   0.14112  -0.0603  0.0177  1.0000  -3.2461   0.0000   0.0000   0.0000   0.3069
  13.700   0.8662   0.14696   0.14383  -0.0617  0.0180  1.0000  -3.1767   0.0000   0.0000   0.0000   0.3086
  13.800   0.8643   0.14950   0.14636  -0.0630  0.0182  1.0000  -3.1133   0.0000   0.0000   0.0000   0.3102
  13.900   0.8626   0.15195   0.14880  -0.0642  0.0184  1.0000  -3.0544   0.0000   0.0000   0.0000   0.3118
  14.000   0.8611   0.15437   0.15121  -0.0655  0.0187  1.0000  -2.9990   0.0000   0.0000   0.0000   0.3133
  14.100   0.8599   0.15679   0.15362  -0.0666  0.0190  1.0000  -2.9459   0.0000   0.0000   0.0000   0.3147
  14.200   0.8586   0.15923   0.15606  -0.0678  0.0193  1.0000  -2.8928   0.0000   0.0000   0.0000   0.3161
  14.300   0.8568   0.16183   0.15864  -0.0689  0.0198  1.0000  -2.8328   0.0000   0.0000   0.0000   0.3174
  15.300   0.8599   0.19225   0.18904  -0.0782  0.0362  1.0000  -2.1988   0.0000   0.0000   0.0000   0.3275
  15.400   0.8616   0.19427   0.19106  -0.0792  0.0362  1.0000  -2.1901   0.0000   0.0000   0.0000   0.3283
  15.500   0.8633   0.19628   0.19307  -0.0801  0.0361  1.0000  -2.1817   0.0000   0.0000   0.0000   0.3291
  15.600   0.8650   0.19825   0.19504  -0.0810  0.0361  1.0000  -2.1736   0.0000   0.0000   0.0000   0.3299
  15.700   0.8668   0.20019   0.19698  -0.0820  0.0360  1.0000  -2.1659   0.0000   0.0000   0.0000   0.3307
  15.800   0.8686   0.20208   0.19887  -0.0829  0.0359  1.0000  -2.1585   0.0000   0.0000   0.0000   0.3315
  15.900   0.8705   0.20389   0.20068  -0.0839  0.0358  1.0000  -2.1515   0.0000   0.0000   0.0000   0.3324
  16.000   0.8726   0.20556   0.20234  -0.0850  0.0356  1.0000  -2.1446   0.0000   0.0000   0.0000   0.3332
  16.100   0.8748   0.20694   0.20373  -0.0862  0.0351  1.0000  -2.1358   0.0000   0.0000   0.0000   0.3342
  16.200   0.8755   0.20830   0.20508  -0.0879  0.0343  1.0000  -2.1014   0.0000   0.0000   0.0000   0.3360
  16.300   0.8761   0.20999   0.20677  -0.0894  0.0335  1.0000  -2.0686   0.0000   0.0000   0.0000   0.3376
  16.400   0.8773   0.21190   0.20866  -0.0907  0.0328  1.0000  -2.0469   0.0000   0.0000   0.0000   0.3388
  16.500   0.8788   0.21386   0.21063  -0.0918  0.0322  1.0000  -2.0319   0.0000   0.0000   0.0000   0.3398
  16.600   0.8804   0.21586   0.21262  -0.0928  0.0316  1.0000  -2.0211   0.0000   0.0000   0.0000   0.3406
  16.700   0.8821   0.21786   0.21462  -0.0937  0.0311  1.0000  -2.0131   0.0000   0.0000   0.0000   0.3414
  16.800   0.8838   0.21986   0.21662  -0.0946  0.0305  1.0000  -2.0072   0.0000   0.0000   0.0000   0.3421
  16.900   0.8856   0.22186   0.21863  -0.0955  0.0300  1.0000  -2.0028   0.0000   0.0000   0.0000   0.3427
  17.000   0.8874   0.22385   0.22062  -0.0963  0.0296  1.0000  -1.9998   0.0000   0.0000   0.0000   0.3433
  17.100   0.8892   0.22585   0.22262  -0.0972  0.0291  1.0000  -1.9979   0.0000   0.0000   0.0000   0.3439
  17.200   0.8910   0.22784   0.22462  -0.0980  0.0287  1.0000  -1.9971   0.0000   0.0000   0.0000   0.3445
  17.300   0.8929   0.22983   0.22661  -0.0988  0.0282  1.0000  -1.9971   0.0000   0.0000   0.0000   0.3450
  17.400   0.8947   0.23182   0.22860  -0.0996  0.0278  1.0000  -1.9980   0.0000   0.0000   0.0000   0.3456
  17.500   0.8966   0.23380   0.23059  -0.1003  0.0274  1.0000  -1.9998   0.0000   0.0000   0.0000   0.3461
  17.600   0.8984   0.23579   0.23257  -0.1011  0.0270  1.0000  -2.0023   0.0000   0.0000   0.0000   0.3465
  17.700   0.9003   0.23777   0.23455  -0.1018  0.0267  1.0000  -2.0058   0.0000   0.0000   0.0000   0.3470
  17.800   0.9022   0.23974   0.23653  -0.1026  0.0263  1.0000  -2.0100   0.0000   0.0000   0.0000   0.3474
  17.900   0.9040   0.24171   0.23851  -0.1033  0.0260  1.0000  -2.0151   0.0000   0.0000   0.0000   0.3479
  18.000   0.9059   0.24368   0.24048  -0.1040  0.0257  1.0000  -2.0211   0.0000   0.0000   0.0000   0.3483
  18.100   0.9078   0.24564   0.24245  -0.1046  0.0253  1.0000  -2.0281   0.0000   0.0000   0.0000   0.3486
  18.200   0.9097   0.24760   0.24441  -0.1053  0.0250  1.0000  -2.0361   0.0000   0.0000   0.0000   0.3490
  18.300   0.9116   0.24956   0.24637  -0.1060  0.0247  1.0000  -2.0453   0.0000   0.0000   0.0000   0.3493
  18.400   0.9135   0.25151   0.24833  -0.1066  0.0244  1.0000  -2.0556   0.0000   0.0000   0.0000   0.3496
  18.500   0.9154   0.25346   0.25028  -0.1072  0.0242  1.0000  -2.0672   0.0000   0.0000   0.0000   0.3499
  18.600   0.9173   0.25540   0.25223  -0.1078  0.0239  1.0000  -2.0803   0.0000   0.0000   0.0000   0.3501
  18.700   0.9192   0.25734   0.25418  -0.1083  0.0236  1.0000  -2.0950   0.0000   0.0000   0.0000   0.3503
  18.800   0.9212   0.25929   0.25613  -0.1088  0.0234  1.0000  -2.1118   0.0000   0.0000   0.0000   0.3505
  18.900   0.9232   0.26124   0.25809  -0.1093  0.0231  1.0000  -2.1306   0.0000   0.0000   0.0000   0.3506
  19.000   0.9253   0.26320   0.26006  -0.1097  0.0229  1.0000  -2.1517   0.0000   0.0000   0.0000   0.3506
  19.100   0.9274   0.26520   0.26207  -0.1101  0.0227  1.0000  -2.1755   0.0000   0.0000   0.0000   0.3505
  19.200   0.9297   0.26725   0.26413  -0.1103  0.0224  1.0000  -2.2025   0.0000   0.0000   0.0000   0.3504
  19.300   0.9322   0.26940   0.26629  -0.1105  0.0222  1.0000  -2.2331   0.0000   0.0000   0.0000   0.3501
  19.400   0.9349   0.27177   0.26867  -0.1106  0.0219  1.0000  -2.2670   0.0000   0.0000   0.0000   0.3497
  19.500   0.9365   0.27461   0.27152  -0.1108  0.0216  1.0000  -2.2810   0.0000   0.0000   0.0000   0.3496
  19.600   0.9298   0.28325   0.28011  -0.1115  0.0208  1.0000  -2.1178   0.0000   0.0000   0.0000   0.3513
  19.700   0.9307   0.28551   0.28237  -0.1122  0.0208  1.0000  -2.1063   0.0000   0.0000   0.0000   0.3518
  19.800   0.9316   0.28776   0.28463  -0.1129  0.0207  1.0000  -2.0945   0.0000   0.0000   0.0000   0.3523
  19.900   0.9324   0.28999   0.28687  -0.1136  0.0207  1.0000  -2.0824   0.0000   0.0000   0.0000   0.3528
  20.000   0.9331   0.29222   0.28910  -0.1142  0.0207  1.0000  -2.0700   0.0000   0.0000   0.0000   0.3533
  20.100   0.9337   0.29443   0.29132  -0.1149  0.0207  1.0000  -2.0574   0.0000   0.0000   0.0000   0.3538
  20.200   0.9342   0.29663   0.29353  -0.1156  0.0207  1.0000  -2.0445   0.0000   0.0000   0.0000   0.3543
  20.300   0.9346   0.29882   0.29572  -0.1162  0.0207  1.0000  -2.0313   0.0000   0.0000   0.0000   0.3549
  20.400   0.9349   0.30098   0.29789  -0.1169  0.0207  1.0000  -2.0178   0.0000   0.0000   0.0000   0.3554
  20.500   0.9351   0.30312   0.30003  -0.1175  0.0207  1.0000  -2.0040   0.0000   0.0000   0.0000   0.3559
  20.600   0.9351   0.30522   0.30215  -0.1181  0.0207  1.0000  -1.9896   0.0000   0.0000   0.0000   0.3564
  20.700   0.9349   0.30729   0.30422  -0.1187  0.0207  1.0000  -1.9749   0.0000   0.0000   0.0000   0.3570
  20.800   0.9345   0.30932   0.30626  -0.1192  0.0206  1.0000  -1.9596   0.0000   0.0000   0.0000   0.3575
  20.900   0.9340   0.31131   0.30826  -0.1198  0.0206  1.0000  -1.9439   0.0000   0.0000   0.0000   0.3580
  21.000   0.9331   0.31323   0.31019  -0.1203  0.0206  1.0000  -1.9276   0.0000   0.0000   0.0000   0.3586
  21.100   0.9320   0.31509   0.31206  -0.1207  0.0206  1.0000  -1.9106   0.0000   0.0000   0.0000   0.3592
  21.200   0.9306   0.31685   0.31383  -0.1212  0.0206  1.0000  -1.8928   0.0000   0.0000   0.0000   0.3597
  21.300   0.9285   0.31848   0.31547  -0.1216  0.0206  1.0000  -1.8735   0.0000   0.0000   0.0000   0.3603
  21.400   0.9259   0.31994   0.31695  -0.1219  0.0206  1.0000  -1.8528   0.0000   0.0000   0.0000   0.3609
  21.500   0.9192   0.32049   0.31752  -0.1217  0.0206  1.0000  -1.8220   0.0000   0.0000   0.0000   0.3617
  21.600   0.8798   0.31190   0.30904  -0.1177  0.0206  1.0000  -1.7098   0.0000   0.0000   0.0000   0.3636
  21.700   0.8729   0.31128   0.30844  -0.1174  0.0206  1.0000  -1.6792   0.0000   0.0000   0.0000   0.3644
  21.800   0.8675   0.31101   0.30819  -0.1173  0.0205  1.0000  -1.6526   0.0000   0.0000   0.0000   0.3651
  21.900   0.8631   0.31092   0.30812  -0.1173  0.0205  1.0000  -1.6285   0.0000   0.0000   0.0000   0.3658
  22.000   0.8592   0.31093   0.30815  -0.1174  0.0205  1.0000  -1.6057   0.0000   0.0000   0.0000   0.3664
  22.100   0.8557   0.31102   0.30825  -0.1175  0.0205  1.0000  -1.5841   0.0000   0.0000   0.0000   0.3671
  22.200   0.8526   0.31116   0.30841  -0.1177  0.0205  1.0000  -1.5635   0.0000   0.0000   0.0000   0.3677
  22.300   0.8498   0.31136   0.30861  -0.1179  0.0205  1.0000  -1.5438   0.0000   0.0000   0.0000   0.3684
  22.400   0.8473   0.31158   0.30885  -0.1182  0.0204  1.0000  -1.5248   0.0000   0.0000   0.0000   0.3690
  22.500   0.8449   0.31182   0.30910  -0.1184  0.0204  1.0000  -1.5061   0.0000   0.0000   0.0000   0.3696
  22.600   0.8426   0.31206   0.30935  -0.1187  0.0204  1.0000  -1.4874   0.0000   0.0000   0.0000   0.3702
  22.700   0.8404   0.31230   0.30960  -0.1190  0.0203  1.0000  -1.4687   0.0000   0.0000   0.0000   0.3709
  22.800   0.8382   0.31250   0.30982  -0.1194  0.0203  1.0000  -1.4480   0.0000   0.0000   0.0000   0.3716
  22.900   0.8361   0.31272   0.31005  -0.1198  0.0203  1.0000  -1.4277   0.0000   0.0000   0.0000   0.3724
  23.000   0.8342   0.31295   0.31029  -0.1202  0.0202  1.0000  -1.4075   0.0000   0.0000   0.0000   0.3731
  23.100   0.8325   0.31319   0.31054  -0.1207  0.0201  1.0000  -1.3874   0.0000   0.0000   0.0000   0.3739
  23.200   0.8309   0.31345   0.31081  -0.1212  0.0200  1.0000  -1.3673   0.0000   0.0000   0.0000   0.3746
  23.300   0.8296   0.31374   0.31111  -0.1217  0.0199  1.0000  -1.3468   0.0000   0.0000   0.0000   0.3754
  23.400   0.8285   0.31408   0.31146  -0.1223  0.0198  1.0000  -1.3257   0.0000   0.0000   0.0000   0.3762
  23.500   0.8278   0.31451   0.31189  -0.1230  0.0195  1.0000  -1.3036   0.0000   0.0000   0.0000   0.3771
  23.600   0.8276   0.31508   0.31247  -0.1237  0.0192  1.0000  -1.2805   0.0000   0.0000   0.0000   0.3779
  23.700   0.8276   0.31578   0.31318  -0.1244  0.0187  1.0000  -1.2582   0.0000   0.0000   0.0000   0.3786
  23.800   0.8274   0.31651   0.31392  -0.1250  0.0182  1.0000  -1.2393   0.0000   0.0000   0.0000   0.3792
  23.900   0.8268   0.31711   0.31459  -0.1254  0.0180  1.0000  -1.2304   0.0000   0.0000   0.0000   0.3796
  24.000   0.8264   0.31778   0.31527  -0.1258  0.0175  1.0000  -1.2177   0.0000   0.0000   0.0000   0.3801
  24.100   0.8259   0.31843   0.31593  -0.1262  0.0171  1.0000  -1.2066   0.0000   0.0000   0.0000   0.3806
  24.200   0.8254   0.31906   0.31657  -0.1266  0.0166  1.0000  -1.1970   0.0000   0.0000   0.0000   0.3810
  24.300   0.8249   0.31967   0.31719  -0.1270  0.0162  1.0000  -1.1886   0.0000   0.0000   0.0000   0.3814
  24.400   0.8244   0.32028   0.31780  -0.1273  0.0157  1.0000  -1.1812   0.0000   0.0000   0.0000   0.3819
  24.500   0.8238   0.32087   0.31841  -0.1277  0.0153  1.0000  -1.1747   0.0000   0.0000   0.0000   0.3823
  24.600   0.8234   0.32147   0.31901  -0.1281  0.0150  1.0000  -1.1688   0.0000   0.0000   0.0000   0.3827
  24.700   0.8229   0.32205   0.31961  -0.1284  0.0146  1.0000  -1.1636   0.0000   0.0000   0.0000   0.3831
  24.800   0.8225   0.32264   0.32021  -0.1288  0.0143  1.0000  -1.1588   0.0000   0.0000   0.0000   0.3835
  24.900   0.8220   0.32323   0.32080  -0.1292  0.0140  1.0000  -1.1544   0.0000   0.0000   0.0000   0.3838
  25.000   0.8216   0.32381   0.32139  -0.1295  0.0137  1.0000  -1.1502   0.0000   0.0000   0.0000   0.3842
  25.100   0.8213   0.32440   0.32199  -0.1299  0.0135  1.0000  -1.1461   0.0000   0.0000   0.0000   0.3846
  25.200   0.8209   0.32498   0.32259  -0.1303  0.0133  1.0000  -1.1420   0.0000   0.0000   0.0000   0.3850
  25.300   0.8206   0.32557   0.32319  -0.1306  0.0131  1.0000  -1.1380   0.0000   0.0000   0.0000   0.3853
  25.400   0.8203   0.32616   0.32379  -0.1310  0.0129  1.0000  -1.1342   0.0000   0.0000   0.0000   0.3857
  25.500   0.8200   0.32675   0.32438  -0.1314  0.0127  1.0000  -1.1309   0.0000   0.0000   0.0000   0.3860
  25.600   0.8197   0.32734   0.32498  -0.1317  0.0126  1.0000  -1.1279   0.0000   0.0000   0.0000   0.3864
  25.700   0.8194   0.32793   0.32558  -0.1321  0.0124  1.0000  -1.1253   0.0000   0.0000   0.0000   0.3867
  25.800   0.8192   0.32851   0.32617  -0.1325  0.0123  1.0000  -1.1231   0.0000   0.0000   0.0000   0.3871
  25.900   0.8190   0.32909   0.32676  -0.1329  0.0121  1.0000  -1.1213   0.0000   0.0000   0.0000   0.3874
  26.000   0.8187   0.32967   0.32735  -0.1332  0.0120  1.0000  -1.1199   0.0000   0.0000   0.0000   0.3877
  26.100   0.8185   0.33025   0.32794  -0.1336  0.0118  1.0000  -1.1189   0.0000   0.0000   0.0000   0.3881
  26.200   0.8184   0.33083   0.32852  -0.1340  0.0117  1.0000  -1.1183   0.0000   0.0000   0.0000   0.3884
  26.300   0.8182   0.33140   0.32910  -0.1343  0.0115  1.0000  -1.1182   0.0000   0.0000   0.0000   0.3887
  26.400   0.8180   0.33196   0.32968  -0.1347  0.0114  1.0000  -1.1186   0.0000   0.0000   0.0000   0.3890
  26.500   0.8179   0.33253   0.33025  -0.1351  0.0113  1.0000  -1.1195   0.0000   0.0000   0.0000   0.3893
  26.600   0.8177   0.33309   0.33082  -0.1354  0.0112  1.0000  -1.1208   0.0000   0.0000   0.0000   0.3896
  26.700   0.8176   0.33364   0.33138  -0.1358  0.0110  1.0000  -1.1227   0.0000   0.0000   0.0000   0.3899
  26.800   0.8174   0.33419   0.33194  -0.1361  0.0109  1.0000  -1.1251   0.0000   0.0000   0.0000   0.3902
  26.900   0.8173   0.33474   0.33250  -0.1365  0.0108  1.0000  -1.1280   0.0000   0.0000   0.0000   0.3905
  27.000   0.8172   0.33528   0.33305  -0.1368  0.0107  1.0000  -1.1316   0.0000   0.0000   0.0000   0.3907
  27.100   0.8170   0.33582   0.33360  -0.1372  0.0106  1.0000  -1.1357   0.0000   0.0000   0.0000   0.3910
  27.200   0.8169   0.33635   0.33414  -0.1375  0.0105  1.0000  -1.1406   0.0000   0.0000   0.0000   0.3912
  27.300   0.8168   0.33689   0.33468  -0.1378  0.0104  1.0000  -1.1461   0.0000   0.0000   0.0000   0.3914
  27.400   0.8167   0.33742   0.33523  -0.1381  0.0103  1.0000  -1.1522   0.0000   0.0000   0.0000   0.3916
  27.500   0.8166   0.33796   0.33578  -0.1384  0.0102  1.0000  -1.1589   0.0000   0.0000   0.0000   0.3918
  27.600   0.8165   0.33852   0.33635  -0.1386  0.0101  1.0000  -1.1662   0.0000   0.0000   0.0000   0.3919
  27.700   0.8164   0.33911   0.33695  -0.1389  0.0100  1.0000  -1.1740   0.0000   0.0000   0.0000   0.3920
  27.800   0.8163   0.33974   0.33759  -0.1391  0.0099  1.0000  -1.1820   0.0000   0.0000   0.0000   0.3921
  27.900   0.8163   0.34046   0.33832  -0.1392  0.0098  1.0000  -1.1899   0.0000   0.0000   0.0000   0.3921
  28.000   0.8163   0.34136   0.33923  -0.1394  0.0097  1.0000  -1.1967   0.0000   0.0000   0.0000   0.3921
  28.100   0.8163   0.34268   0.34056  -0.1394  0.0096  1.0000  -1.1964   0.0000   0.0000   0.0000   0.3919


