xflr5 v6.61

 Calculated polar for: RG-15 8.9%

 1 1 Reynolds number fixed          Mach number fixed         

 xtrf =   1.000 (top)        1.000 (bottom)
 Mach =   0.000     Re =     0.100 e 6     Ncrit =   9.000

  alpha     CL        CD       CDp       Cm    Top Xtr Bot Xtr   Cpmin    Chinge    XCp    
 ------- -------- --------- --------- -------- ------- ------- -------- --------- ---------
   0.000   0.0869   0.01476   0.00779  -0.0327  0.9705  1.0000  -0.3667   0.0000   0.0000   0.0000   0.6257
   0.500   0.1771   0.01516   0.00812  -0.0405  0.9447  1.0000  -0.4328   0.0000   0.0000   0.0000   0.4775
   1.000   0.2687   0.01530   0.00807  -0.0478  0.9183  1.0000  -0.5108   0.0000   0.0000   0.0000   0.4262
   1.500   0.3756   0.01494   0.00779  -0.0571  0.8981  1.0000  -0.6174   0.0000   0.0000   0.0000   0.4002
   2.000   0.4554   0.01450   0.00736  -0.0607  0.8662  1.0000  -0.7264   0.0000   0.0000   0.0000   0.3811
   2.500   0.5265   0.01406   0.00696  -0.0620  0.8284  1.0000  -0.8441   0.0000   0.0000   0.0000   0.3654
   3.000   0.5866   0.01386   0.00677  -0.0613  0.7826  1.0000  -0.9986   0.0000   0.0000   0.0000   0.3517
   3.500   0.6384   0.01392   0.00682  -0.0591  0.7279  1.0000  -1.1617   0.0000   0.0000   0.0000   0.3396
   4.000   0.6890   0.01410   0.00694  -0.0568  0.6667  1.0000  -1.3316   0.0000   0.0000   0.0000   0.3290
   4.500   0.7390   0.01454   0.00751  -0.0543  0.5998  1.0000  -1.6959   0.0000   0.0000   0.0000   0.3196
   5.000   0.7835   0.01512   0.00805  -0.0514  0.5249  1.0000  -2.0412   0.0000   0.0000   0.0000   0.3114
   5.500   0.8266   0.01603   0.00863  -0.0485  0.4418  1.0000  -2.4019   0.0000   0.0000   0.0000   0.3039
   6.000   0.8657   0.01725   0.00949  -0.0452  0.3472  1.0000  -2.7611   0.0000   0.0000   0.0000   0.2971
   6.500   0.9022   0.01902   0.01093  -0.0420  0.2465  1.0000  -3.2311   0.0000   0.0000   0.0000   0.2909
   7.000   0.9370   0.02150   0.01302  -0.0389  0.1625  1.0000  -3.7383   0.0000   0.0000   0.0000   0.2852
   7.500   0.9739   0.02513   0.01644  -0.0359  0.1138  1.0000  -4.1950   0.0000   0.0000   0.0000   0.2801
   8.000   1.0031   0.02758   0.01917  -0.0327  0.0637  1.0000  -4.6054   0.0000   0.0000   0.0000   0.2752
   8.500   1.0294   0.03321   0.02486  -0.0294  0.0367  1.0000  -4.7930   0.0000   0.0000   0.0000   0.2707
   9.000   1.0638   0.03821   0.03053  -0.0262  0.0315  1.0000  -4.9617   0.0000   0.0000   0.0000   0.2662
   9.500   1.0822   0.04513   0.03829  -0.0222  0.0293  1.0000  -5.0095   0.0000   0.0000   0.0000   0.2616
  10.000   1.0788   0.05289   0.04687  -0.0173  0.0290  1.0000  -4.9590   0.0000   0.0000   0.0000   0.2567
  10.500   1.0512   0.06037   0.05497  -0.0120  0.0293  1.0000  -4.8423   0.0000   0.0000   0.0000   0.2516
  11.000   1.0111   0.06893   0.06399  -0.0108  0.0298  1.0000  -4.6810   0.0000   0.0000   0.0000   0.2502
  11.500   0.9656   0.08067   0.07609  -0.0166  0.0306  1.0000  -4.4504   0.0000   0.0000   0.0000   0.2561
  12.000   0.9168   0.09779   0.09342  -0.0291  0.0318  1.0000  -4.0787   0.0000   0.0000   0.0000   0.2702
  12.500   0.8779   0.11832   0.11394  -0.0422  0.0338  1.0000  -3.5718   0.0000   0.0000   0.0000   0.2865
  13.000   0.8584   0.13440   0.12994  -0.0502  0.0354  1.0000  -3.2000   0.0000   0.0000   0.0000   0.2966
  14.000   0.8419   0.16459   0.15974  -0.0662  0.0494  1.0000  -2.4065   0.0000   0.0000   0.0000   0.3166
  14.500   0.8400   0.17964   0.17478  -0.0731  0.0742  1.0000  -2.0378   0.0000   0.0000   0.0000   0.3249
  15.000   0.8446   0.18847   0.18359  -0.0780  0.0708  1.0000  -1.9483   0.0000   0.0000   0.0000   0.3297
  15.500   0.8522   0.19784   0.19319  -0.0821  0.0669  1.0000  -1.8638   0.0000   0.0000   0.0000   0.3332
  16.000   0.8629   0.20691   0.20228  -0.0854  0.0637  1.0000  -1.8907   0.0000   0.0000   0.0000   0.3352
  16.500   0.8782   0.21638   0.21179  -0.0872  0.0606  1.0000  -1.9807   0.0000   0.0000   0.0000   0.3349
  17.500   0.9039   0.24643   0.24186  -0.0911  0.0565  1.0000  -2.0455   0.0000   0.0000   0.0000   0.3353
  18.000   0.9098   0.25509   0.25052  -0.0958  0.0560  1.0000  -1.9948   0.0000   0.0000   0.0000   0.3392
  18.500   0.9072   0.26066   0.25607  -0.1021  0.0548  1.0000  -1.8798   0.0000   0.0000   0.0000   0.3458
  19.000   0.9088   0.26811   0.26352  -0.1080  0.0512  1.0000  -1.7785   0.0000   0.0000   0.0000   0.3514
  19.500   0.9142   0.27819   0.27364  -0.1117  0.0476  1.0000  -1.7493   0.0000   0.0000   0.0000   0.3541
  20.000   0.9186   0.28831   0.28380  -0.1146  0.0447  1.0000  -1.7380   0.0000   0.0000   0.0000   0.3561


