xflr5 v6.61

 Calculated polar for: S1223

 1 1 Reynolds number fixed          Mach number fixed         

 xtrf =   1.000 (top)        1.000 (bottom)
 Mach =   0.000     Re =     0.021 e 6     Ncrit =   9.000

  alpha     CL        CD       CDp       Cm    Top Xtr Bot Xtr   Cpmin    Chinge    XCp    
 ------- -------- --------- --------- -------- ------- ------- -------- --------- ---------
   0.000  -0.0454   0.10270   0.09687  -0.0054  1.0000  1.0000  -0.7119   0.0000   0.0000   0.0000   0.0996
   0.100  -0.0465   0.10254   0.09673  -0.0052  1.0000  1.0000  -0.7142   0.0000   0.0000   0.0000   0.1071
   0.200  -0.0475   0.10236   0.09658  -0.0050  1.0000  1.0000  -0.7165   0.0000   0.0000   0.0000   0.1142
   0.300  -0.0485   0.10218   0.09642  -0.0049  1.0000  1.0000  -0.7188   0.0000   0.0000   0.0000   0.1209
   0.400  -0.0495   0.10199   0.09626  -0.0047  1.0000  1.0000  -0.7211   0.0000   0.0000   0.0000   0.1272
   0.500  -0.0505   0.10179   0.09608  -0.0045  1.0000  1.0000  -0.7234   0.0000   0.0000   0.0000   0.1333
   0.600  -0.0515   0.10159   0.09590  -0.0044  1.0000  1.0000  -0.7257   0.0000   0.0000   0.0000   0.1391
   0.700  -0.0524   0.10138   0.09571  -0.0042  1.0000  1.0000  -0.7279   0.0000   0.0000   0.0000   0.1447
   0.800  -0.0534   0.10116   0.09552  -0.0040  1.0000  1.0000  -0.7302   0.0000   0.0000   0.0000   0.1500
   0.900  -0.0543   0.10093   0.09531  -0.0039  1.0000  1.0000  -0.7325   0.0000   0.0000   0.0000   0.1552
   1.000  -0.0552   0.10069   0.09510  -0.0037  1.0000  1.0000  -0.7347   0.0000   0.0000   0.0000   0.1602
   1.100  -0.0561   0.10045   0.09488  -0.0035  1.0000  1.0000  -0.7369   0.0000   0.0000   0.0000   0.1650
   1.200  -0.0570   0.10020   0.09465  -0.0034  1.0000  1.0000  -0.7391   0.0000   0.0000   0.0000   0.1696
   1.300  -0.0579   0.09995   0.09442  -0.0032  1.0000  1.0000  -0.7413   0.0000   0.0000   0.0000   0.1742
   1.400  -0.0588   0.09969   0.09418  -0.0030  1.0000  1.0000  -0.7434   0.0000   0.0000   0.0000   0.1786
   1.500  -0.0597   0.09942   0.09393  -0.0029  1.0000  1.0000  -0.7456   0.0000   0.0000   0.0000   0.1829
   1.600  -0.0606   0.09914   0.09368  -0.0027  1.0000  1.0000  -0.7477   0.0000   0.0000   0.0000   0.1870
   1.700  -0.0615   0.09886   0.09342  -0.0025  1.0000  1.0000  -0.7498   0.0000   0.0000   0.0000   0.1911
   1.800  -0.0676   0.09847   0.09307  -0.0011  1.0000  0.9982  -0.7540   0.0000   0.0000   0.0000   0.2176
   1.900  -0.0794   0.09805   0.09268   0.0017  1.0000  0.9943  -0.7609   0.0000   0.0000   0.0000   0.2574
   2.000  -0.0913   0.09764   0.09231   0.0045  1.0000  0.9901  -0.7681   0.0000   0.0000   0.0000   0.2869
   2.100  -0.1039   0.09726   0.09197   0.0074  1.0000  0.9857  -0.7757   0.0000   0.0000   0.0000   0.3105
   2.200  -0.1174   0.09693   0.09168   0.0106  1.0000  0.9813  -0.7841   0.0000   0.0000   0.0000   0.3300
   2.300  -0.1284   0.09642   0.09121   0.0131  1.0000  0.9762  -0.7908   0.0000   0.0000   0.0000   0.3425
   2.400  -0.1422   0.09605   0.09089   0.0162  1.0000  0.9712  -0.7995   0.0000   0.0000   0.0000   0.3554
   2.500  -0.1582   0.09582   0.09068   0.0199  1.0000  0.9668  -0.8097   0.0000   0.0000   0.0000   0.3677
   2.600  -0.1679   0.09517   0.09008   0.0219  1.0000  0.9605  -0.8157   0.0000   0.0000   0.0000   0.3730
   2.700  -0.1810   0.09470   0.08965   0.0248  1.0000  0.9546  -0.8241   0.0000   0.0000   0.0000   0.3798
   2.800  -0.1967   0.09432   0.08932   0.0283  1.0000  0.9496  -0.8342   0.0000   0.0000   0.0000   0.3869
   2.900  -0.2135   0.09401   0.08904   0.0320  1.0000  0.9452  -0.8450   0.0000   0.0000   0.0000   0.3933
   3.000  -0.2229   0.09326   0.08832   0.0338  1.0000  0.9368  -0.8513   0.0000   0.0000   0.0000   0.3954
   3.100  -0.2376   0.09271   0.08782   0.0369  1.0000  0.9304  -0.8609   0.0000   0.0000   0.0000   0.3992
   3.200  -0.2547   0.09223   0.08739   0.0406  1.0000  0.9256  -0.8721   0.0000   0.0000   0.0000   0.4034
   3.300  -0.2729   0.09179   0.08699   0.0446  1.0000  0.9219  -0.8839   0.0000   0.0000   0.0000   0.4075
   3.400  -0.2843   0.09114   0.08636   0.0467  1.0000  0.9135  -0.8920   0.0000   0.0000   0.0000   0.4084
   3.500  -0.2952   0.09049   0.08576   0.0485  1.0000  0.9033  -0.9002   0.0000   0.0000   0.0000   0.4087
   3.600  -0.3096   0.09013   0.08544   0.0510  1.0000  0.8950  -0.9109   0.0000   0.0000   0.0000   0.4092
   3.700  -0.3136   0.08975   0.08506   0.0505  1.0000  0.8780  -0.9166   0.0000   0.0000   0.0000   0.4056
   3.800  -0.3107   0.09015   0.08544   0.0468  1.0000  0.8495  -0.9216   0.0000   0.0000   0.0000   0.3952
   3.900   0.2903   0.10332   0.09621  -0.1364  1.0000  0.3026  -0.7772   0.0000   0.0000   0.0000   0.7167
   4.000   0.3446   0.10583   0.09840  -0.1491  1.0000  0.3181  -0.7741   0.0000   0.0000   0.0000   0.6788
   4.100   0.3453   0.10582   0.09850  -0.1475  1.0000  0.3250  -0.7628   0.0000   0.0000   0.0000   0.6732
   4.200   0.3549   0.10644   0.09914  -0.1482  1.0000  0.3337  -0.7564   0.0000   0.0000   0.0000   0.6634
   4.300   0.3813   0.10787   0.10044  -0.1532  1.0000  0.3447  -0.7592   0.0000   0.0000   0.0000   0.6472
   4.400   0.4380   0.11091   0.10307  -0.1656  1.0000  0.3620  -0.7858   0.0000   0.0000   0.0000   0.6232
   4.500   0.4479   0.11163   0.10385  -0.1660  1.0000  0.3742  -0.7876   0.0000   0.0000   0.0000   0.6155
   4.600   0.4730   0.11348   0.10560  -0.1700  1.0000  0.4113  -0.8050   0.0000   0.0000   0.0000   0.6041
   4.700   0.4859   0.11470   0.10688  -0.1708  1.0000  0.4549  -0.8177   0.0000   0.0000   0.0000   0.5959
   4.800   0.5016   0.11590   0.10814  -0.1715  1.0000  0.5094  -0.8451   0.0000   0.0000   0.0000   0.5861
   4.900   0.5142   0.11693   0.10929  -0.1707  1.0000  0.5998  -0.8766   0.0000   0.0000   0.0000   0.5759
   5.000   0.5207   0.11741   0.10989  -0.1685  1.0000  0.6902  -0.8976   0.0000   0.0000   0.0000   0.5671
   5.100   0.5214   0.11735   0.10993  -0.1655  1.0000  0.7544  -0.9070   0.0000   0.0000   0.0000   0.5607
   5.200   0.5245   0.11739   0.11003  -0.1635  1.0000  0.8263  -0.9127   0.0000   0.0000   0.0000   0.5548
   5.300   0.5254   0.11705   0.10977  -0.1619  1.0000  0.8904  -0.9155   0.0000   0.0000   0.0000   0.5510
   5.400   0.5214   0.11605   0.10883  -0.1604  1.0000  0.9395  -0.9162   0.0000   0.0000   0.0000   0.5504
   5.500   0.5397   0.11700   0.10958  -0.1653  1.0000  1.0000  -0.8938   0.0000   0.0000   0.0000   0.5489
   5.600   0.5844   0.12154   0.11362  -0.1761  1.0000  1.0000  -0.8297   0.0000   0.0000   0.0000   0.5438
   5.700   0.6130   0.12476   0.11651  -0.1827  1.0000  1.0000  -0.7772   0.0000   0.0000   0.0000   0.5403
   5.800   0.6361   0.12752   0.11894  -0.1879  1.0000  1.0000  -0.7413   0.0000   0.0000   0.0000   0.5374
   5.900   0.6560   0.13002   0.12119  -0.1922  1.0000  1.0000  -0.7520   0.0000   0.0000   0.0000   0.5348
   6.000   0.6729   0.13227   0.12320  -0.1957  1.0000  1.0000  -0.7611   0.0000   0.0000   0.0000   0.5324
   6.100   0.6872   0.13431   0.12502  -0.1985  1.0000  1.0000  -0.7688   0.0000   0.0000   0.0000   0.5303
   6.200   0.6996   0.13616   0.12667  -0.2007  1.0000  1.0000  -0.7754   0.0000   0.0000   0.0000   0.5282
   6.300   0.7103   0.13787   0.12820  -0.2025  1.0000  1.0000  -0.7810   0.0000   0.0000   0.0000   0.5262
   6.400   0.7199   0.13948   0.12964  -0.2040  1.0000  1.0000  -0.7860   0.0000   0.0000   0.0000   0.5243
   6.500   0.7286   0.14102   0.13103  -0.2053  1.0000  1.0000  -0.7905   0.0000   0.0000   0.0000   0.5225
   6.600   0.7396   0.14279   0.13264  -0.2069  0.9985  1.0000  -0.7967   0.0000   0.0000   0.0000   0.5203
   6.700   0.7479   0.14392   0.13365  -0.2081  0.9958  1.0000  -0.8003   0.0000   0.0000   0.0000   0.5186
   6.800   0.7603   0.14610   0.13566  -0.2099  0.9939  1.0000  -0.8079   0.0000   0.0000   0.0000   0.5163
   6.900   0.7663   0.14678   0.13627  -0.2106  0.9905  1.0000  -0.8112   0.0000   0.0000   0.0000   0.5148
   7.000   0.7804   0.14943   0.13876  -0.2127  0.9883  1.0000  -0.8225   0.0000   0.0000   0.0000   0.5124
   7.100   0.7827   0.14929   0.13858  -0.2127  0.9842  1.0000  -0.8229   0.0000   0.0000   0.0000   0.5114
   7.200   0.7959   0.15179   0.14094  -0.2146  0.9812  1.0000  -0.8334   0.0000   0.0000   0.0000   0.5091
   7.300   0.7982   0.15174   0.14086  -0.2145  0.9773  1.0000  -0.8339   0.0000   0.0000   0.0000   0.5080
   7.400   0.8081   0.15345   0.14247  -0.2158  0.9734  1.0000  -0.8414   0.0000   0.0000   0.0000   0.5062
   7.500   0.8208   0.15619   0.14510  -0.2176  0.9711  1.0000  -0.8514   0.0000   0.0000   0.0000   0.5040
   7.600   0.8198   0.15538   0.14427  -0.2169  0.9672  1.0000  -0.8490   0.0000   0.0000   0.0000   0.5033
   7.700   0.8277   0.15669   0.14552  -0.2178  0.9630  1.0000  -0.8545   0.0000   0.0000   0.0000   0.5017
   7.800   0.8394   0.15918   0.14792  -0.2194  0.9601  1.0000  -0.8634   0.0000   0.0000   0.0000   0.4998
   7.900   0.8447   0.16024   0.14892  -0.2199  0.9575  1.0000  -0.8666   0.0000   0.0000   0.0000   0.4985
   8.000   0.8465   0.15995   0.14862  -0.2197  0.9526  1.0000  -0.8664   0.0000   0.0000   0.0000   0.4975
   8.100   0.8554   0.16161   0.15022  -0.2207  0.9482  1.0000  -0.8726   0.0000   0.0000   0.0000   0.4959
   8.200   0.8680   0.16455   0.15308  -0.2224  0.9450  1.0000  -0.8821   0.0000   0.0000   0.0000   0.4939
   8.300   0.8710   0.16499   0.15349  -0.2225  0.9419  1.0000  -0.8829   0.0000   0.0000   0.0000   0.4929
   8.400   0.8731   0.16463   0.15311  -0.2223  0.9359  1.0000  -0.8836   0.0000   0.0000   0.0000   0.4919
   8.500   0.8836   0.16669   0.15512  -0.2236  0.9305  1.0000  -0.8932   0.0000   0.0000   0.0000   0.4902
   8.600   0.8989   0.17072   0.15914  -0.2257  0.9267  1.0000  -0.9075   0.0000   0.0000   0.0000   0.4881
   8.700   0.8953   0.16890   0.15732  -0.2246  0.9220  1.0000  -0.9037   0.0000   0.0000   0.0000   0.4877
   8.800   0.9008   0.16940   0.15779  -0.2250  0.9148  1.0000  -0.9087   0.0000   0.0000   0.0000   0.4864
   8.900   0.9137   0.17239   0.16071  -0.2266  0.9093  1.0000  -0.9205   0.0000   0.0000   0.0000   0.4845
   9.000   0.9263   0.17609   0.16434  -0.2283  0.9060  1.0000  -0.9320   0.0000   0.0000   0.0000   0.4827
   9.100   0.9211   0.17359   0.16187  -0.2269  0.9011  1.0000  -0.9264   0.0000   0.0000   0.0000   0.4825
   9.200   0.9255   0.17398   0.16224  -0.2271  0.8951  1.0000  -0.9300   0.0000   0.0000   0.0000   0.4813
   9.300   0.9348   0.17602   0.16425  -0.2282  0.8900  1.0000  -0.9382   0.0000   0.0000   0.0000   0.4798
   9.400   0.9475   0.17956   0.16774  -0.2298  0.8861  1.0000  -0.9494   0.0000   0.0000   0.0000   0.4781
   9.500   0.9573   0.18273   0.17086  -0.2310  0.8836  1.0000  -0.9576   0.0000   0.0000   0.0000   0.4767
   9.600   0.9517   0.18002   0.16817  -0.2297  0.8792  1.0000  -0.9512   0.0000   0.0000   0.0000   0.4765
   9.700   0.9545   0.17992   0.16807  -0.2296  0.8730  1.0000  -0.9529   0.0000   0.0000   0.0000   0.4756
   9.800   0.9626   0.18165   0.16978  -0.2304  0.8673  1.0000  -0.9620   0.0000   0.0000   0.0000   0.4742
   9.900   0.9752   0.18516   0.17327  -0.2320  0.8626  1.0000  -0.9754   0.0000   0.0000   0.0000   0.4726
  10.000   0.9904   0.19061   0.17865  -0.2340  0.8594  1.0000  -0.9914   0.0000   0.0000   0.0000   0.4708
  10.100   0.9818   0.18667   0.17474  -0.2323  0.8552  1.0000  -0.9830   0.0000   0.0000   0.0000   0.4709
  10.200   0.9832   0.18585   0.17394  -0.2320  0.8477  1.0000  -0.9851   0.0000   0.0000   0.0000   0.4701
  10.300   0.9923   0.18785   0.17592  -0.2328  0.8406  1.0000  -0.9951   0.0000   0.0000   0.0000   0.4686
  10.400   1.0079   0.19281   0.18086  -0.2347  0.8350  1.0000  -1.0115   0.0000   0.0000   0.0000   0.4667
  10.500   1.0152   0.19562   0.18364  -0.2355  0.8317  1.0000  -1.0189   0.0000   0.0000   0.0000   0.4656
  10.600   1.0085   0.19183   0.17987  -0.2341  0.8262  1.0000  -1.0121   0.0000   0.0000   0.0000   0.4656
  10.700   1.0117   0.19170   0.17975  -0.2341  0.8189  1.0000  -1.0156   0.0000   0.0000   0.0000   0.4647
  10.800   1.0198   0.19366   0.18171  -0.2349  0.8130  1.0000  -1.0240   0.0000   0.0000   0.0000   0.4634
  10.900   1.0314   0.19739   0.18544  -0.2362  0.8083  1.0000  -1.0358   0.0000   0.0000   0.0000   0.4619
  11.000   1.0468   0.20373   0.19177  -0.2381  0.8049  1.0000  -1.0511   0.0000   0.0000   0.0000   0.4601
  11.100   1.0452   0.20288   0.19091  -0.2376  0.8025  1.0000  -1.0505   0.0000   0.0000   0.0000   0.4599
  11.200   1.0402   0.19951   0.18756  -0.2367  0.7978  1.0000  -1.0462   0.0000   0.0000   0.0000   0.4598
  11.300   1.0420   0.19909   0.18716  -0.2366  0.7914  1.0000  -1.0498   0.0000   0.0000   0.0000   0.4592
  11.400   1.0485   0.20055   0.18862  -0.2371  0.7852  1.0000  -1.0587   0.0000   0.0000   0.0000   0.4581
  11.500   1.0592   0.20387   0.19196  -0.2381  0.7796  1.0000  -1.0723   0.0000   0.0000   0.0000   0.4566
  11.600   1.0758   0.21099   0.19908  -0.2400  0.7750  1.0000  -1.0923   0.0000   0.0000   0.0000   0.4547
  11.700   1.0769   0.21148   0.19956  -0.2400  0.7723  1.0000  -1.0941   0.0000   0.0000   0.0000   0.4543
  11.800   1.0699   0.20712   0.19522  -0.2389  0.7671  1.0000  -1.0868   0.0000   0.0000   0.0000   0.4545
  11.900   1.0715   0.20657   0.19470  -0.2387  0.7592  1.0000  -1.0898   0.0000   0.0000   0.0000   0.4538
  12.000   1.0795   0.20856   0.19670  -0.2393  0.7518  1.0000  -1.1001   0.0000   0.0000   0.0000   0.4525
  12.100   1.0933   0.21350   0.20166  -0.2406  0.7457  1.0000  -1.1171   0.0000   0.0000   0.0000   0.4507
  12.200   1.1127   0.22360   0.21193  -0.2428  0.7416  1.0000  -1.1418   0.0000   0.0000   0.0000   0.4487
  12.300   1.1031   0.21812   0.20647  -0.2416  0.7394  1.0000  -1.1312   0.0000   0.0000   0.0000   0.4493
  12.400   1.0978   0.21486   0.20323  -0.2408  0.7344  1.0000  -1.1266   0.0000   0.0000   0.0000   0.4494
  12.500   1.0991   0.21457   0.20296  -0.2408  0.7280  1.0000  -1.1305   0.0000   0.0000   0.0000   0.4489
  12.600   1.1045   0.21595   0.20436  -0.2411  0.7219  1.0000  -1.1397   0.0000   0.0000   0.0000   0.4480
  12.700   1.1130   0.21867   0.20710  -0.2418  0.7166  1.0000  -1.1529   0.0000   0.0000   0.0000   0.4468
  12.800   1.1250   0.22346   0.21192  -0.2429  0.7121  1.0000  -1.1707   0.0000   0.0000   0.0000   0.4453
  12.900   1.1424   0.23280   0.22128  -0.2447  0.7087  1.0000  -1.1947   0.0000   0.0000   0.0000   0.4434
  13.000   1.1371   0.23007   0.21854  -0.2442  0.7067  1.0000  -1.1886   0.0000   0.0000   0.0000   0.4437
  13.100   1.1295   0.22573   0.21422  -0.2434  0.7027  1.0000  -1.1795   0.0000   0.0000   0.0000   0.4442
  13.200   1.1284   0.22452   0.21303  -0.2432  0.6959  1.0000  -1.1794   0.0000   0.0000   0.0000   0.4440
  13.300   1.1329   0.22560   0.21414  -0.2434  0.6887  1.0000  -1.1868   0.0000   0.0000   0.0000   0.4431
  13.400   1.1422   0.22859   0.21716  -0.2440  0.6820  1.0000  -1.2009   0.0000   0.0000   0.0000   0.4418
  13.500   1.1589   0.23590   0.22449  -0.2453  0.6761  1.0000  -1.2248   0.0000   0.0000   0.0000   0.4397
  13.600   1.1687   0.24217   0.23076  -0.2463  0.6729  1.0000  -1.2410   0.0000   0.0000   0.0000   0.4385
  13.700   1.1581   0.23639   0.22500  -0.2454  0.6699  1.0000  -1.2274   0.0000   0.0000   0.0000   0.4394
  13.800   1.1537   0.23384   0.22248  -0.2450  0.6638  1.0000  -1.2234   0.0000   0.0000   0.0000   0.4397
  13.900   1.1558   0.23425   0.22292  -0.2451  0.6573  1.0000  -1.2290   0.0000   0.0000   0.0000   0.4392
  14.000   1.1609   0.23596   0.22466  -0.2455  0.6517  1.0000  -1.2395   0.0000   0.0000   0.0000   0.4383
  14.100   1.1689   0.23887   0.22760  -0.2460  0.6466  1.0000  -1.2541   0.0000   0.0000   0.0000   0.4372
  14.200   1.1803   0.24383   0.23260  -0.2469  0.6423  1.0000  -1.2740   0.0000   0.0000   0.0000   0.4357
  14.300   1.1972   0.25345   0.24228  -0.2483  0.6388  1.0000  -1.3015   0.0000   0.0000   0.0000   0.4338
  14.400   1.1968   0.25424   0.24304  -0.2485  0.6371  1.0000  -1.3015   0.0000   0.0000   0.0000   0.4338
  14.500   1.1875   0.24928   0.23811  -0.2479  0.6346  1.0000  -1.2880   0.0000   0.0000   0.0000   0.4347
  14.600   1.1823   0.24662   0.23547  -0.2476  0.6294  1.0000  -1.2812   0.0000   0.0000   0.0000   0.4351
  14.700   1.1830   0.24664   0.23552  -0.2477  0.6228  1.0000  -1.2835   0.0000   0.0000   0.0000   0.4348
  14.800   1.1876   0.24824   0.23716  -0.2480  0.6161  1.0000  -1.2924   0.0000   0.0000   0.0000   0.4340
  14.900   1.1966   0.25159   0.24056  -0.2484  0.6097  1.0000  -1.3083   0.0000   0.0000   0.0000   0.4327
  15.000   1.2139   0.25987   0.24889  -0.2494  0.6040  1.0000  -1.3370   0.0000   0.0000   0.0000   0.4304
  15.100   1.2240   0.26733   0.25636  -0.2503  0.6010  1.0000  -1.3524   0.0000   0.0000   0.0000   0.4292
  15.200   1.2129   0.26159   0.25063  -0.2498  0.5988  1.0000  -1.3345   0.0000   0.0000   0.0000   0.4304
  15.300   1.2061   0.25831   0.24738  -0.2496  0.5940  1.0000  -1.3234   0.0000   0.0000   0.0000   0.4311
  15.400   1.2055   0.25810   0.24720  -0.2497  0.5881  1.0000  -1.3223   0.0000   0.0000   0.0000   0.4311
  15.500   1.2083   0.25935   0.24849  -0.2499  0.5826  1.0000  -1.3265   0.0000   0.0000   0.0000   0.4306
  15.600   1.2133   0.26148   0.25066  -0.2502  0.5774  1.0000  -1.3344   0.0000   0.0000   0.0000   0.4298
  15.700   1.2208   0.26472   0.25394  -0.2507  0.5728  1.0000  -1.3461   0.0000   0.0000   0.0000   0.4287
  15.800   1.2318   0.27010   0.25938  -0.2513  0.5688  1.0000  -1.3633   0.0000   0.0000   0.0000   0.4272
  15.900   1.2492   0.28089   0.27024  -0.2524  0.5655  1.0000  -1.3895   0.0000   0.0000   0.0000   0.4251
  16.000   1.2490   0.28258   0.27191  -0.2527  0.5639  1.0000  -1.3864   0.0000   0.0000   0.0000   0.4252
  16.100   1.2387   0.27753   0.26689  -0.2525  0.5620  1.0000  -1.3676   0.0000   0.0000   0.0000   0.4264
  16.200   1.2314   0.27427   0.26365  -0.2524  0.5581  1.0000  -1.3535   0.0000   0.0000   0.0000   0.4273
  16.300   1.2294   0.27368   0.26309  -0.2525  0.5521  1.0000  -1.3482   0.0000   0.0000   0.0000   0.4274
  16.400   1.2315   0.27480   0.26426  -0.2527  0.5456  1.0000  -1.3499   0.0000   0.0000   0.0000   0.4270
  16.500   1.2370   0.27717   0.26667  -0.2529  0.5393  1.0000  -1.3575   0.0000   0.0000   0.0000   0.4261
  16.600   1.2475   0.28177   0.27132  -0.2532  0.5335  1.0000  -1.3735   0.0000   0.0000   0.0000   0.4244
  16.700   1.2688   0.29404   0.28405  -0.2541  0.5285  1.0000  -1.4122   0.0000   0.0000   0.0000   0.4215
  16.800   1.2709   0.29758   0.28759  -0.2545  0.5268  1.0000  -1.4151   0.0000   0.0000   0.0000   0.4214
  16.900   1.2608   0.29303   0.28305  -0.2545  0.5253  1.0000  -1.3961   0.0000   0.0000   0.0000   0.4226
  17.000   1.2530   0.28985   0.27990  -0.2546  0.5225  1.0000  -1.3809   0.0000   0.0000   0.0000   0.4237
  17.100   1.2492   0.28884   0.27892  -0.2547  0.5180  1.0000  -1.3734   0.0000   0.0000   0.0000   0.4242
  17.200   1.2490   0.28951   0.27963  -0.2550  0.5130  1.0000  -1.3728   0.0000   0.0000   0.0000   0.4242
  17.300   1.2510   0.29106   0.28122  -0.2552  0.5082  1.0000  -1.3762   0.0000   0.0000   0.0000   0.4238
  17.400   1.2546   0.29322   0.28343  -0.2555  0.5037  1.0000  -1.3828   0.0000   0.0000   0.0000   0.4232
  17.500   1.2600   0.29612   0.28638  -0.2557  0.4997  1.0000  -1.3927   0.0000   0.0000   0.0000   0.4223
  17.600   1.2679   0.30030   0.29063  -0.2560  0.4960  1.0000  -1.4071   0.0000   0.0000   0.0000   0.4211
  17.700   1.2813   0.30807   0.29846  -0.2565  0.4926  1.0000  -1.4314   0.0000   0.0000   0.0000   0.4192
  17.800   1.2974   0.32020   0.31062  -0.2575  0.4901  1.0000  -1.4580   0.0000   0.0000   0.0000   0.4173
  17.900   1.2854   0.31497   0.30540  -0.2574  0.4890  1.0000  -1.4336   0.0000   0.0000   0.0000   0.4188
  18.000   1.2746   0.31068   0.30113  -0.2574  0.4868  1.0000  -1.4110   0.0000   0.0000   0.0000   0.4202
  18.100   1.2673   0.30842   0.29891  -0.2575  0.4825  1.0000  -1.3951   0.0000   0.0000   0.0000   0.4212
  18.200   1.2651   0.30856   0.29908  -0.2576  0.4767  1.0000  -1.3892   0.0000   0.0000   0.0000   0.4214
  18.300   1.2664   0.31002   0.30059  -0.2577  0.4708  1.0000  -1.3903   0.0000   0.0000   0.0000   0.4210
  18.400   1.2704   0.31240   0.30302  -0.2578  0.4654  1.0000  -1.3968   0.0000   0.0000   0.0000   0.4202
  18.500   1.2773   0.31595   0.30662  -0.2579  0.4608  1.0000  -1.4087   0.0000   0.0000   0.0000   0.4190
  18.600   1.2869   0.32124   0.31197  -0.2582  0.4575  1.0000  -1.4251   0.0000   0.0000   0.0000   0.4175
  18.700   1.3013   0.33011   0.32092  -0.2588  0.4549  1.0000  -1.4490   0.0000   0.0000   0.0000   0.4155
  18.800   1.3139   0.34016   0.33097  -0.2597  0.4533  1.0000  -1.4673   0.0000   0.0000   0.0000   0.4141
  18.900   1.3027   0.33616   0.32700  -0.2597  0.4525  1.0000  -1.4423   0.0000   0.0000   0.0000   0.4155
  19.000   1.2921   0.33285   0.32372  -0.2596  0.4513  1.0000  -1.4183   0.0000   0.0000   0.0000   0.4168
  19.100   1.2829   0.33059   0.32148  -0.2596  0.4491  1.0000  -1.3968   0.0000   0.0000   0.0000   0.4180
  19.200   1.2767   0.32987   0.32081  -0.2596  0.4457  1.0000  -1.3810   0.0000   0.0000   0.0000   0.4187
  19.300   1.2737   0.33052   0.32150  -0.2596  0.4418  1.0000  -1.3713   0.0000   0.0000   0.0000   0.4190
  19.400   1.2726   0.33192   0.32295  -0.2597  0.4379  1.0000  -1.3654   0.0000   0.0000   0.0000   0.4189
  19.500   1.2728   0.33374   0.32482  -0.2597  0.4341  1.0000  -1.3622   0.0000   0.0000   0.0000   0.4187
  19.600   1.2743   0.33592   0.32705  -0.2597  0.4305  1.0000  -1.3620   0.0000   0.0000   0.0000   0.4182
  19.700   1.2776   0.33861   0.32979  -0.2598  0.4269  1.0000  -1.3705   0.0000   0.0000   0.0000   0.4175
  19.800   1.2840   0.34233   0.33357  -0.2599  0.4235  1.0000  -1.3855   0.0000   0.0000   0.0000   0.4164
  19.900   1.2967   0.34872   0.34002  -0.2604  0.4202  1.0000  -1.4129   0.0000   0.0000   0.0000   0.4146
  20.000   1.3255   0.36481   0.35619  -0.2622  0.4174  1.0000  -1.4703   0.0000   0.0000   0.0000   0.4113
  20.100   1.3117   0.36128   0.35262  -0.2617  0.4166  1.0000  -1.4416   0.0000   0.0000   0.0000   0.4128
  20.200   1.2938   0.35664   0.34802  -0.2608  0.4152  1.0000  -1.4050   0.0000   0.0000   0.0000   0.4146
  20.300   1.2761   0.35322   0.34466  -0.2596  0.4126  1.0000  -1.3695   0.0000   0.0000   0.0000   0.4162
  20.400   1.2628   0.35198   0.34349  -0.2583  0.4081  1.0000  -1.3438   0.0000   0.0000   0.0000   0.4171
  20.500   1.2541   0.35234   0.34392  -0.2572  0.4033  1.0000  -1.3282   0.0000   0.0000   0.0000   0.4174
  20.600   1.2471   0.35331   0.34496  -0.2559  0.3989  1.0000  -1.3167   0.0000   0.0000   0.0000   0.4173
  20.700   1.1826   0.34542   0.33741  -0.2426  0.3905  1.0000  -1.2147   0.0000   0.0000   0.0000   0.4177
  20.800   1.1876   0.34852   0.34056  -0.2428  0.3880  1.0000  -1.2248   0.0000   0.0000   0.0000   0.4168
  20.900   1.2022   0.35386   0.34591  -0.2449  0.3864  1.0000  -1.2503   0.0000   0.0000   0.0000   0.4157
  21.000   1.2306   0.36123   0.35323  -0.2500  0.3857  1.0000  -1.2971   0.0000   0.0000   0.0000   0.4147
  21.100   1.2620   0.36818   0.36012  -0.2558  0.3852  1.0000  -1.3485   0.0000   0.0000   0.0000   0.4136
  21.200   1.2801   0.37496   0.36691  -0.2581  0.3838  1.0000  -1.3804   0.0000   0.0000   0.0000   0.4122
  21.300   1.3014   0.38379   0.37576  -0.2607  0.3827  1.0000  -1.4177   0.0000   0.0000   0.0000   0.4106


