xflr5 v6.61

 Calculated polar for: S1223

 1 1 Reynolds number fixed          Mach number fixed         

 xtrf =   1.000 (top)        1.000 (bottom)
 Mach =   0.000     Re =     0.002 e 6     Ncrit =   9.000

  alpha     CL        CD       CDp       Cm    Top Xtr Bot Xtr   Cpmin    Chinge    XCp    
 ------- -------- --------- --------- -------- ------- ------- -------- --------- ---------
   0.000  -0.0307   0.11646   0.09042  -0.0197  1.0000  1.0000  -1.3052   0.0000   0.0000   0.0000  -0.4334
   0.500  -0.0439   0.11449   0.08896  -0.0177  1.0000  1.0000  -1.3398   0.0000   0.0000   0.0000  -0.1800
   1.000  -0.0574   0.11230   0.08725  -0.0159  1.0000  1.0000  -1.3750   0.0000   0.0000   0.0000  -0.0458
   1.500  -0.0703   0.10990   0.08527  -0.0145  1.0000  1.0000  -1.4107   0.0000   0.0000   0.0000   0.0298
   2.000  -0.0758   0.10749   0.08314  -0.0151  1.0000  1.0000  -1.4446   0.0000   0.0000   0.0000   0.0388
   2.500  -0.0596   0.10565   0.08121  -0.0213  1.0000  1.0000  -1.4705   0.0000   0.0000   0.0000  -0.1187
   3.000   0.0044   0.10579   0.08042  -0.0392  1.0000  1.0000  -1.4717   0.0000   0.0000   0.0000   9.1878
   3.500   0.1389   0.11029   0.08226  -0.0730  1.0000  1.0000  -1.3992   0.0000   0.0000   0.0000   0.7723
   4.000   0.2615   0.11694   0.08504  -0.1000  1.0000  1.0000  -1.2558   0.0000   0.0000   0.0000   0.6273
   4.500   0.3400   0.12279   0.08802  -0.1143  1.0000  1.0000  -1.1068   0.0000   0.0000   0.0000   0.5800
   5.000   0.3992   0.12823   0.09116  -0.1235  1.0000  1.0000  -0.9604   0.0000   0.0000   0.0000   0.5521
   5.500   0.4488   0.13352   0.09458  -0.1302  1.0000  1.0000  -0.8170   0.0000   0.0000   0.0000   0.5321
   6.000   0.4928   0.13879   0.09830  -0.1357  1.0000  1.0000  -0.7539   0.0000   0.0000   0.0000   0.5164
   6.500   0.5332   0.14411   0.10211  -0.1403  1.0000  1.0000  -0.7747   0.0000   0.0000   0.0000   0.5034
   7.000   0.5705   0.14948   0.10636  -0.1444  1.0000  1.0000  -0.7928   0.0000   0.0000   0.0000   0.4926
   7.500   0.6055   0.15493   0.11087  -0.1482  1.0000  1.0000  -0.8119   0.0000   0.0000   0.0000   0.4832
   8.000   0.6387   0.16047   0.11564  -0.1516  1.0000  1.0000  -0.8323   0.0000   0.0000   0.0000   0.4750
   8.500   0.6703   0.16610   0.12065  -0.1548  1.0000  1.0000  -0.8505   0.0000   0.0000   0.0000   0.4678
   9.000   0.7005   0.17184   0.12590  -0.1580  1.0000  1.0000  -0.8710   0.0000   0.0000   0.0000   0.4614
   9.500   0.7295   0.17768   0.13138  -0.1610  1.0000  1.0000  -0.8923   0.0000   0.0000   0.0000   0.4557
  10.000   0.7574   0.18363   0.13724  -0.1639  1.0000  1.0000  -0.9115   0.0000   0.0000   0.0000   0.4506
  10.500   0.7842   0.18971   0.14309  -0.1668  1.0000  1.0000  -0.9330   0.0000   0.0000   0.0000   0.4460
  11.000   0.8101   0.19591   0.14916  -0.1697  1.0000  1.0000  -0.9557   0.0000   0.0000   0.0000   0.4418
  11.500   0.8350   0.20223   0.15546  -0.1725  1.0000  1.0000  -0.9761   0.0000   0.0000   0.0000   0.4380
  12.000   0.8590   0.20869   0.16197  -0.1754  1.0000  1.0000  -1.0007   0.0000   0.0000   0.0000   0.4346
  12.500   0.8821   0.21529   0.16872  -0.1782  1.0000  1.0000  -1.0249   0.0000   0.0000   0.0000   0.4315
  13.000   0.9043   0.22204   0.17570  -0.1811  1.0000  1.0000  -1.0466   0.0000   0.0000   0.0000   0.4288
  13.500   0.9258   0.22895   0.18291  -0.1841  1.0000  1.0000  -1.0740   0.0000   0.0000   0.0000   0.4263
  14.000   0.9465   0.23602   0.19081  -0.1871  1.0000  1.0000  -1.0999   0.0000   0.0000   0.0000   0.4241
  14.500   0.9664   0.24327   0.19840  -0.1901  1.0000  1.0000  -1.1228   0.0000   0.0000   0.0000   0.4222
  15.000   0.9856   0.25070   0.20624  -0.1932  1.0000  1.0000  -1.1517   0.0000   0.0000   0.0000   0.4204
  15.500   1.0041   0.25832   0.21431  -0.1964  1.0000  1.0000  -1.1789   0.0000   0.0000   0.0000   0.4189
  16.000   1.0218   0.26614   0.22263  -0.1996  1.0000  1.0000  -1.2027   0.0000   0.0000   0.0000   0.4175
  16.500   1.0390   0.27413   0.23116  -0.2028  1.0000  1.0000  -1.2231   0.0000   0.0000   0.0000   0.4163
  17.000   1.0555   0.28231   0.23991  -0.2061  1.0000  1.0000  -1.2509   0.0000   0.0000   0.0000   0.4152
  17.500   1.0714   0.29070   0.24890  -0.2095  1.0000  1.0000  -1.2760   0.0000   0.0000   0.0000   0.4142
  18.000   1.0866   0.29932   0.25814  -0.2128  1.0000  1.0000  -1.2972   0.0000   0.0000   0.0000   0.4134
  18.500   1.1012   0.30816   0.26763  -0.2162  1.0000  1.0000  -1.3146   0.0000   0.0000   0.0000   0.4127
  19.000   1.1152   0.31728   0.27841  -0.2195  1.0000  1.0000  -1.3275   0.0000   0.0000   0.0000   0.4119
  19.500   1.1283   0.32658   0.28841  -0.2229  1.0000  1.0000  -1.3390   0.0000   0.0000   0.0000   0.4114
  20.000   1.1407   0.33611   0.29865  -0.2263  1.0000  1.0000  -1.3591   0.0000   0.0000   0.0000   0.4110


