xflr5 v6.61

 Calculated polar for: S1223

 1 1 Reynolds number fixed          Mach number fixed         

 xtrf =   1.000 (top)        1.000 (bottom)
 Mach =   0.000     Re =     0.130 e 6     Ncrit =   9.000

  alpha     CL        CD       CDp       Cm    Top Xtr Bot Xtr   Cpmin    Chinge    XCp    
 ------- -------- --------- --------- -------- ------- ------- -------- --------- ---------
   0.000   1.1886   0.02102   0.01202  -0.2721  0.5237  0.3274  -1.4755   0.0000   0.0000   0.0000   0.4767
   0.500   1.2335   0.02205   0.01320  -0.2690  0.5105  0.3998  -1.5309   0.0000   0.0000   0.0000   0.4651
   1.000   1.2979   0.02256   0.01351  -0.2707  0.4989  0.4285  -1.5993   0.0000   0.0000   0.0000   0.4548
   1.500   1.3673   0.02364   0.01437  -0.2737  0.4884  0.4609  -1.6697   0.0000   0.0000   0.0000   0.4455
   2.000   1.4249   0.02425   0.01513  -0.2740  0.4809  0.5037  -1.7318   0.0000   0.0000   0.0000   0.4369
   2.500   1.4814   0.02493   0.01598  -0.2740  0.4723  0.5727  -1.7941   0.0000   0.0000   0.0000   0.4287
   3.000   1.5360   0.02559   0.01675  -0.2736  0.4636  0.6891  -1.8571   0.0000   0.0000   0.0000   0.4210
   3.500   1.5750   0.02635   0.01770  -0.2699  0.4565  1.0000  -1.9126   0.0000   0.0000   0.0000   0.4134
   4.000   1.6303   0.02812   0.01942  -0.2703  0.4506  1.0000  -1.9794   0.0000   0.0000   0.0000   0.4070
   4.500   1.6792   0.02942   0.02089  -0.2691  0.4451  1.0000  -2.0463   0.0000   0.0000   0.0000   0.4006
   5.000   1.7261   0.03085   0.02240  -0.2676  0.4387  1.0000  -2.1162   0.0000   0.0000   0.0000   0.3945
   5.500   1.7735   0.03209   0.02365  -0.2661  0.4312  1.0000  -2.1953   0.0000   0.0000   0.0000   0.3886
   6.000   1.8234   0.03355   0.02507  -0.2652  0.4249  1.0000  -2.2870   0.0000   0.0000   0.0000   0.3831
   6.500   1.8698   0.03681   0.02834  -0.2644  0.4171  1.0000  -2.3746   0.0000   0.0000   0.0000   0.3782
   7.000   1.9033   0.03807   0.02989  -0.2604  0.4117  1.0000  -2.4567   0.0000   0.0000   0.0000   0.3726
   7.500   1.9350   0.03996   0.03224  -0.2564  0.4049  1.0000  -2.5487   0.0000   0.0000   0.0000   0.3674
   8.000   1.9676   0.04151   0.03398  -0.2524  0.3969  1.0000  -2.6593   0.0000   0.0000   0.0000   0.3622
   8.500   2.0129   0.04257   0.03504  -0.2506  0.3894  1.0000  -2.8288   0.0000   0.0000   0.0000   0.3574
   9.000   2.0496   0.04585   0.03842  -0.2482  0.3809  1.0000  -2.9824   0.0000   0.0000   0.0000   0.3530
   9.500   2.0529   0.04816   0.04118  -0.2395  0.3743  1.0000  -3.0781   0.0000   0.0000   0.0000   0.3476
  10.000   2.0520   0.05054   0.04388  -0.2303  0.3657  1.0000  -3.1688   0.0000   0.0000   0.0000   0.3422
  10.500   2.0787   0.05120   0.04475  -0.2252  0.3571  1.0000  -3.3165   0.0000   0.0000   0.0000   0.3372
  11.000   2.1337   0.05254   0.04603  -0.2255  0.3469  1.0000  -3.5187   0.0000   0.0000   0.0000   0.3333
  11.500   2.0751   0.05736   0.05141  -0.2088  0.3403  1.0000  -3.4984   0.0000   0.0000   0.0000   0.3273
  12.000   2.0121   0.06451   0.05904  -0.1953  0.3311  1.0000  -3.4635   0.0000   0.0000   0.0000   0.3227
  12.500   2.1319   0.05724   0.05143  -0.2000  0.3195  1.0000  -3.8382   0.0000   0.0000   0.0000   0.3180


