xflr5 v6.61

 Calculated polar for: S1223

 1 1 Reynolds number fixed          Mach number fixed         

 xtrf =   1.000 (top)        1.000 (bottom)
 Mach =   0.000     Re =     0.040 e 6     Ncrit =   9.000

  alpha     CL        CD       CDp       Cm    Top Xtr Bot Xtr   Cpmin    Chinge    XCp    
 ------- -------- --------- --------- -------- ------- ------- -------- --------- ---------
   0.000   0.0997   0.09707   0.09202  -0.0735  0.7251  0.3221  -0.7332   0.0000   0.0000   0.0000   1.0000
   0.500   0.0977   0.09469   0.08975  -0.0666  0.7173  0.3413  -0.7074   0.0000   0.0000   0.0000   0.9420
   2.000   0.1625   0.09296   0.08823  -0.0708  0.7026  0.5093  -0.6644   0.0000   0.0000   0.0000   0.6879
   2.500   0.1795   0.09250   0.08787  -0.0695  0.7056  0.5652  -0.6609   0.0000   0.0000   0.0000   0.6374
   3.500   0.8391   0.09705   0.08991  -0.2106  0.6689  0.6546  -0.9917   0.0000   0.0000   0.0000   0.4963
   4.000   0.8951   0.10382   0.09643  -0.2160  0.6732  0.7187  -1.0299   0.0000   0.0000   0.0000   0.4859
   5.500   0.8029   0.12883   0.12216  -0.2165  0.7837  0.7809  -0.8584   0.0000   0.0000   0.0000   0.5124
   6.000   0.8659   0.13681   0.12993  -0.2247  0.7713  1.0000  -0.9015   0.0000   0.0000   0.0000   0.5014
   6.500   0.9197   0.14316   0.13561  -0.2312  0.7455  1.0000  -0.9421   0.0000   0.0000   0.0000   0.4924
   7.000   0.9349   0.14669   0.13887  -0.2306  0.7192  1.0000  -0.9541   0.0000   0.0000   0.0000   0.4868
   7.500   0.9737   0.15479   0.14673  -0.2329  0.7037  1.0000  -0.9880   0.0000   0.0000   0.0000   0.4784
   8.000   1.0073   0.15991   0.15165  -0.2336  0.6789  1.0000  -1.0224   0.0000   0.0000   0.0000   0.4703
   8.500   1.0136   0.16330   0.15497  -0.2326  0.6560  1.0000  -1.0283   0.0000   0.0000   0.0000   0.4670
   9.000   1.0942   0.17879   0.17024  -0.2374  0.6389  1.0000  -1.1215   0.0000   0.0000   0.0000   0.4535
   9.500   1.0674   0.17496   0.16647  -0.2339  0.6130  1.0000  -1.0914   0.0000   0.0000   0.0000   0.4548
  10.000   1.1394   0.19354   0.18493  -0.2380  0.6010  1.0000  -1.1851   0.0000   0.0000   0.0000   0.4436
  10.500   1.1220   0.18797   0.17944  -0.2353  0.5715  1.0000  -1.1643   0.0000   0.0000   0.0000   0.4435
  11.000   1.1351   0.19469   0.18619  -0.2364  0.5585  1.0000  -1.1851   0.0000   0.0000   0.0000   0.4411
  11.500   1.1586   0.19941   0.19110  -0.2369  0.5349  1.0000  -1.2253   0.0000   0.0000   0.0000   0.4363
  12.000   1.1683   0.20552   0.19725  -0.2381  0.5190  1.0000  -1.2444   0.0000   0.0000   0.0000   0.4346
  12.500   1.1967   0.21238   0.20418  -0.2386  0.4969  1.0000  -1.3031   0.0000   0.0000   0.0000   0.4292
  13.000   1.2181   0.22439   0.21626  -0.2403  0.4873  1.0000  -1.3449   0.0000   0.0000   0.0000   0.4261
  13.500   1.2252   0.22527   0.21724  -0.2409  0.4610  1.0000  -1.3740   0.0000   0.0000   0.0000   0.4244
  14.000   1.2570   0.24172   0.23379  -0.2423  0.4516  1.0000  -1.4413   0.0000   0.0000   0.0000   0.4195
  14.500   1.2443   0.23899   0.23117  -0.2444  0.4291  1.0000  -1.4173   0.0000   0.0000   0.0000   0.4221
  15.000   1.2954   0.26136   0.25368  -0.2444  0.4163  1.0000  -1.5225   0.0000   0.0000   0.0000   0.4132
  16.000   1.3256   0.27823   0.27116  -0.2466  0.3828  1.0000  -1.5735   0.0000   0.0000   0.0000   0.4083


