xflr5 v6.61

 Calculated polar for: S1223

 1 1 Reynolds number fixed          Mach number fixed         

 xtrf =   1.000 (top)        1.000 (bottom)
 Mach =   0.000     Re =     0.001 e 6     Ncrit =   9.000

  alpha     CL        CD       CDp       Cm    Top Xtr Bot Xtr   Cpmin    Chinge    XCp    
 ------- -------- --------- --------- -------- ------- ------- -------- --------- ---------
   0.000  -0.0664   0.17980   0.11102  -0.0437  1.0000  1.0000  -1.6180   0.0000   0.0000   0.0000  -0.4382
   0.500  -0.0427   0.17852   0.10814  -0.0478  1.0000  1.0000  -1.5800   0.0000   0.0000   0.0000  -0.9084
   1.000  -0.0134   0.17772   0.10531  -0.0524  1.0000  1.0000  -1.5266   0.0000   0.0000   0.0000  -3.7731
   1.500   0.0203   0.17743   0.10268  -0.0573  1.0000  1.0000  -1.4586   0.0000   0.0000   0.0000   3.1292
   2.000   0.0572   0.17769   0.10037  -0.0623  1.0000  1.0000  -1.3781   0.0000   0.0000   0.0000   1.3564
   2.500   0.0958   0.17843   0.09848  -0.0672  1.0000  1.0000  -1.2872   0.0000   0.0000   0.0000   0.9576
   3.000   0.1352   0.17960   0.09705  -0.0719  1.0000  1.0000  -1.1883   0.0000   0.0000   0.0000   0.7830
   3.500   0.1754   0.18113   0.09545  -0.0764  1.0000  1.0000  -1.0760   0.0000   0.0000   0.0000   0.6838
   4.000   0.2151   0.18306   0.09489  -0.0806  1.0000  1.0000  -0.9656   0.0000   0.0000   0.0000   0.6210
   4.500   0.2542   0.18533   0.09482  -0.0845  1.0000  1.0000  -0.8533   0.0000   0.0000   0.0000   0.5775
   5.000   0.2924   0.18791   0.09524  -0.0882  1.0000  1.0000  -0.7401   0.0000   0.0000   0.0000   0.5455
   5.500   0.3297   0.19079   0.09615  -0.0917  1.0000  1.0000  -0.7018   0.0000   0.0000   0.0000   0.5210
   6.000   0.3661   0.19394   0.09753  -0.0951  1.0000  1.0000  -0.7214   0.0000   0.0000   0.0000   0.5016
   6.500   0.4014   0.19735   0.09936  -0.0983  1.0000  1.0000  -0.7396   0.0000   0.0000   0.0000   0.4858
   7.000   0.4357   0.20099   0.10138  -0.1014  1.0000  1.0000  -0.7566   0.0000   0.0000   0.0000   0.4728
   7.500   0.4695   0.20487   0.10394  -0.1044  1.0000  1.0000  -0.7749   0.0000   0.0000   0.0000   0.4615
   8.000   0.5022   0.20897   0.10689  -0.1073  1.0000  1.0000  -0.7941   0.0000   0.0000   0.0000   0.4520
   8.500   0.5340   0.21328   0.11023  -0.1102  1.0000  1.0000  -0.8118   0.0000   0.0000   0.0000   0.4438
   9.000   0.5647   0.21779   0.11395  -0.1130  1.0000  1.0000  -0.8303   0.0000   0.0000   0.0000   0.4366
   9.500   0.5945   0.22249   0.11804  -0.1157  1.0000  1.0000  -0.8506   0.0000   0.0000   0.0000   0.4304
  10.000   0.6233   0.22738   0.12248  -0.1184  1.0000  1.0000  -0.8693   0.0000   0.0000   0.0000   0.4249
  10.500   0.6506   0.23242   0.12775  -0.1212  1.0000  1.0000  -0.8886   0.0000   0.0000   0.0000   0.4203
  11.000   0.6781   0.23768   0.13275  -0.1239  1.0000  1.0000  -0.9101   0.0000   0.0000   0.0000   0.4159
  11.500   0.7048   0.24312   0.13806  -0.1266  1.0000  1.0000  -0.9300   0.0000   0.0000   0.0000   0.4119
  12.000   0.7305   0.24875   0.14368  -0.1292  1.0000  1.0000  -0.9500   0.0000   0.0000   0.0000   0.4083
  12.500   0.7555   0.25455   0.14962  -0.1319  1.0000  1.0000  -0.9731   0.0000   0.0000   0.0000   0.4051
  13.000   0.7796   0.26052   0.15587  -0.1346  1.0000  1.0000  -0.9944   0.0000   0.0000   0.0000   0.4023
  13.500   0.8028   0.26666   0.16241  -0.1374  1.0000  1.0000  -1.0159   0.0000   0.0000   0.0000   0.3998
  14.000   0.8252   0.27296   0.16925  -0.1401  1.0000  1.0000  -1.0407   0.0000   0.0000   0.0000   0.3975
  14.500   0.8468   0.27943   0.17639  -0.1429  1.0000  1.0000  -1.0635   0.0000   0.0000   0.0000   0.3955
  15.000   0.8675   0.28606   0.18444  -0.1458  1.0000  1.0000  -1.0851   0.0000   0.0000   0.0000   0.3938
  15.500   0.8875   0.29283   0.19200  -0.1487  1.0000  1.0000  -1.1116   0.0000   0.0000   0.0000   0.3923
  16.000   0.9068   0.29978   0.19984  -0.1517  1.0000  1.0000  -1.1358   0.0000   0.0000   0.0000   0.3909
  16.500   0.9255   0.30691   0.20794  -0.1547  1.0000  1.0000  -1.1578   0.0000   0.0000   0.0000   0.3897
  17.000   0.9435   0.31422   0.21632  -0.1577  1.0000  1.0000  -1.1826   0.0000   0.0000   0.0000   0.3886
  17.500   0.9608   0.32172   0.22495  -0.1607  1.0000  1.0000  -1.2083   0.0000   0.0000   0.0000   0.3877
  18.000   0.9774   0.32942   0.23384  -0.1638  1.0000  1.0000  -1.2313   0.0000   0.0000   0.0000   0.3868
  18.500   0.9933   0.33729   0.24297  -0.1669  1.0000  1.0000  -1.2515   0.0000   0.0000   0.0000   0.3861
  19.000   1.0083   0.34536   0.25233  -0.1700  1.0000  1.0000  -1.2726   0.0000   0.0000   0.0000   0.3855
  19.500   1.0226   0.35360   0.26189  -0.1730  1.0000  1.0000  -1.2969   0.0000   0.0000   0.0000   0.3849
  20.000   1.0363   0.36191   0.27287  -0.1759  1.0000  1.0000  -1.3199   0.0000   0.0000   0.0000   0.3844


