xflr5 v6.61

 Calculated polar for: S1223

 1 1 Reynolds number fixed          Mach number fixed         

 xtrf =   1.000 (top)        1.000 (bottom)
 Mach =   0.000     Re =     0.207 e 6     Ncrit =   9.000

  alpha     CL        CD       CDp       Cm    Top Xtr Bot Xtr   Cpmin    Chinge    XCp    
 ------- -------- --------- --------- -------- ------- ------- -------- --------- ---------
   0.000   1.1736   0.01794   0.00895  -0.2681  0.4767  0.0650  -1.4830   0.0000   0.0000   0.0000   0.4761
   0.200   1.2087   0.01789   0.00939  -0.2709  0.4715  0.2907  -1.5147   0.0000   0.0000   0.0000   0.4714
   0.300   1.2183   0.01809   0.00960  -0.2705  0.4693  0.3085  -1.5268   0.0000   0.0000   0.0000   0.4692
   0.400   1.2287   0.01829   0.00972  -0.2702  0.4672  0.3166  -1.5392   0.0000   0.0000   0.0000   0.4669
   0.500   1.2406   0.01840   0.00989  -0.2704  0.4649  0.3335  -1.5529   0.0000   0.0000   0.0000   0.4647
   0.600   1.2507   0.01863   0.01012  -0.2700  0.4627  0.3477  -1.5652   0.0000   0.0000   0.0000   0.4625
   0.700   1.2622   0.01886   0.01029  -0.2700  0.4604  0.3565  -1.5784   0.0000   0.0000   0.0000   0.4604
   0.800   1.2759   0.01908   0.01042  -0.2705  0.4577  0.3600  -1.5929   0.0000   0.0000   0.0000   0.4583
   0.900   1.2932   0.01924   0.01053  -0.2719  0.4547  0.3667  -1.6096   0.0000   0.0000   0.0000   0.4564
   1.000   1.3071   0.01935   0.01065  -0.2725  0.4529  0.3728  -1.6241   0.0000   0.0000   0.0000   0.4544
   1.100   1.3184   0.01940   0.01073  -0.2724  0.4520  0.3782  -1.6371   0.0000   0.0000   0.0000   0.4525
   1.200   1.3297   0.01947   0.01081  -0.2724  0.4509  0.3835  -1.6501   0.0000   0.0000   0.0000   0.4505
   1.300   1.3411   0.01954   0.01088  -0.2724  0.4497  0.3887  -1.6632   0.0000   0.0000   0.0000   0.4486
   1.400   1.3527   0.01962   0.01096  -0.2724  0.4485  0.3939  -1.6764   0.0000   0.0000   0.0000   0.4467
   1.500   1.3643   0.01970   0.01104  -0.2725  0.4472  0.3991  -1.6896   0.0000   0.0000   0.0000   0.4449
   1.600   1.3758   0.01980   0.01112  -0.2725  0.4458  0.4036  -1.7028   0.0000   0.0000   0.0000   0.4431
   1.700   1.3884   0.01986   0.01119  -0.2728  0.4444  0.4113  -1.7167   0.0000   0.0000   0.0000   0.4413
   1.800   1.4009   0.01992   0.01134  -0.2731  0.4430  0.4205  -1.7306   0.0000   0.0000   0.0000   0.4396
   1.900   1.4127   0.02001   0.01145  -0.2732  0.4415  0.4285  -1.7440   0.0000   0.0000   0.0000   0.4378
   2.000   1.4243   0.02012   0.01156  -0.2732  0.4401  0.4369  -1.7574   0.0000   0.0000   0.0000   0.4361
   2.100   1.4358   0.02023   0.01165  -0.2732  0.4385  0.4455  -1.7707   0.0000   0.0000   0.0000   0.4345
   2.200   1.4475   0.02032   0.01174  -0.2733  0.4370  0.4546  -1.7843   0.0000   0.0000   0.0000   0.4328
   2.300   1.4596   0.02039   0.01186  -0.2735  0.4354  0.4674  -1.7983   0.0000   0.0000   0.0000   0.4312
   2.400   1.4711   0.02049   0.01198  -0.2735  0.4338  0.4799  -1.8119   0.0000   0.0000   0.0000   0.4296
   2.500   1.4825   0.02061   0.01208  -0.2735  0.4322  0.4928  -1.8254   0.0000   0.0000   0.0000   0.4280
   2.600   1.4943   0.02071   0.01220  -0.2737  0.4307  0.5081  -1.8393   0.0000   0.0000   0.0000   0.4264
   2.700   1.5062   0.02082   0.01235  -0.2738  0.4291  0.5258  -1.8532   0.0000   0.0000   0.0000   0.4249
   2.800   1.5181   0.02097   0.01248  -0.2739  0.4276  0.5443  -1.8671   0.0000   0.0000   0.0000   0.4234
   2.900   1.5306   0.02110   0.01266  -0.2742  0.4261  0.5662  -1.8813   0.0000   0.0000   0.0000   0.4219
   3.000   1.5431   0.02128   0.01285  -0.2745  0.4246  0.5901  -1.8955   0.0000   0.0000   0.0000   0.4205
   3.100   1.5560   0.02147   0.01308  -0.2748  0.4230  0.6167  -1.9098   0.0000   0.0000   0.0000   0.4191
   3.200   1.5693   0.02171   0.01334  -0.2753  0.4213  0.6464  -1.9241   0.0000   0.0000   0.0000   0.4177
   3.300   1.5827   0.02200   0.01368  -0.2758  0.4194  0.6814  -1.9381   0.0000   0.0000   0.0000   0.4163
   3.400   1.5957   0.02238   0.01413  -0.2762  0.4173  0.7216  -1.9512   0.0000   0.0000   0.0000   0.4150
   3.500   1.6041   0.02241   0.01425  -0.2755  0.4168  0.7665  -1.9629   0.0000   0.0000   0.0000   0.4135
   3.600   1.6097   0.02238   0.01432  -0.2742  0.4163  0.8260  -1.9731   0.0000   0.0000   0.0000   0.4120
   3.700   1.6097   0.02222   0.01426  -0.2717  0.4158  1.0000  -1.9784   0.0000   0.0000   0.0000   0.4102
   3.800   1.6206   0.02236   0.01440  -0.2717  0.4151  1.0000  -1.9928   0.0000   0.0000   0.0000   0.4089
   3.900   1.6314   0.02251   0.01454  -0.2716  0.4143  1.0000  -2.0071   0.0000   0.0000   0.0000   0.4076
   4.000   1.6420   0.02266   0.01469  -0.2715  0.4135  1.0000  -2.0213   0.0000   0.0000   0.0000   0.4063
   4.100   1.6526   0.02282   0.01484  -0.2714  0.4127  1.0000  -2.0354   0.0000   0.0000   0.0000   0.4050
   4.200   1.6631   0.02298   0.01501  -0.2713  0.4118  1.0000  -2.0495   0.0000   0.0000   0.0000   0.4037
   4.300   1.6736   0.02314   0.01518  -0.2711  0.4108  1.0000  -2.0636   0.0000   0.0000   0.0000   0.4024
   4.400   1.6841   0.02331   0.01543  -0.2710  0.4099  1.0000  -2.0776   0.0000   0.0000   0.0000   0.4011
   4.500   1.6945   0.02349   0.01561  -0.2709  0.4089  1.0000  -2.0916   0.0000   0.0000   0.0000   0.3999
   4.600   1.7048   0.02366   0.01579  -0.2707  0.4079  1.0000  -2.1060   0.0000   0.0000   0.0000   0.3987
   4.700   1.7152   0.02384   0.01597  -0.2706  0.4068  1.0000  -2.1216   0.0000   0.0000   0.0000   0.3974
   4.800   1.7255   0.02402   0.01615  -0.2704  0.4058  1.0000  -2.1372   0.0000   0.0000   0.0000   0.3962
   4.900   1.7356   0.02419   0.01633  -0.2702  0.4046  1.0000  -2.1528   0.0000   0.0000   0.0000   0.3950
   5.000   1.7457   0.02436   0.01649  -0.2700  0.4034  1.0000  -2.1684   0.0000   0.0000   0.0000   0.3938
   5.100   1.7556   0.02452   0.01665  -0.2697  0.4022  1.0000  -2.1840   0.0000   0.0000   0.0000   0.3926
   5.200   1.7655   0.02468   0.01681  -0.2695  0.4009  1.0000  -2.1996   0.0000   0.0000   0.0000   0.3914
   5.300   1.7754   0.02484   0.01696  -0.2692  0.3996  1.0000  -2.2154   0.0000   0.0000   0.0000   0.3903
   5.400   1.7854   0.02499   0.01711  -0.2690  0.3984  1.0000  -2.2313   0.0000   0.0000   0.0000   0.3891
   5.500   1.7953   0.02516   0.01727  -0.2688  0.3972  1.0000  -2.2487   0.0000   0.0000   0.0000   0.3879
   5.600   1.8054   0.02533   0.01744  -0.2686  0.3960  1.0000  -2.2663   0.0000   0.0000   0.0000   0.3868
   5.700   1.8156   0.02552   0.01762  -0.2684  0.3950  1.0000  -2.2839   0.0000   0.0000   0.0000   0.3857
   5.800   1.8258   0.02571   0.01781  -0.2682  0.3939  1.0000  -2.3032   0.0000   0.0000   0.0000   0.3846
   5.900   1.8360   0.02591   0.01800  -0.2680  0.3929  1.0000  -2.3228   0.0000   0.0000   0.0000   0.3835
   6.000   1.8462   0.02611   0.01819  -0.2679  0.3918  1.0000  -2.3424   0.0000   0.0000   0.0000   0.3824
   6.100   1.8564   0.02633   0.01840  -0.2677  0.3906  1.0000  -2.3621   0.0000   0.0000   0.0000   0.3813
   6.200   1.8667   0.02656   0.01862  -0.2676  0.3894  1.0000  -2.3819   0.0000   0.0000   0.0000   0.3803
   6.300   1.8774   0.02684   0.01889  -0.2676  0.3879  1.0000  -2.4021   0.0000   0.0000   0.0000   0.3793
   6.400   1.8888   0.02721   0.01924  -0.2677  0.3862  1.0000  -2.4228   0.0000   0.0000   0.0000   0.3783
   6.500   1.9004   0.02779   0.01981  -0.2680  0.3840  1.0000  -2.4432   0.0000   0.0000   0.0000   0.3774
   6.600   1.9111   0.02854   0.02059  -0.2682  0.3818  1.0000  -2.4620   0.0000   0.0000   0.0000   0.3765
   6.700   1.9196   0.02865   0.02073  -0.2677  0.3813  1.0000  -2.4802   0.0000   0.0000   0.0000   0.3754
   6.800   1.9282   0.02879   0.02091  -0.2672  0.3807  1.0000  -2.4996   0.0000   0.0000   0.0000   0.3744
   6.900   1.9366   0.02894   0.02109  -0.2666  0.3800  1.0000  -2.5197   0.0000   0.0000   0.0000   0.3733
   7.000   1.9449   0.02909   0.02127  -0.2661  0.3792  1.0000  -2.5396   0.0000   0.0000   0.0000   0.3722
   7.100   1.9531   0.02923   0.02161  -0.2655  0.3783  1.0000  -2.5611   0.0000   0.0000   0.0000   0.3712
   7.200   1.9610   0.02938   0.02180  -0.2649  0.3773  1.0000  -2.5830   0.0000   0.0000   0.0000   0.3701
   7.300   1.9687   0.02954   0.02199  -0.2642  0.3762  1.0000  -2.6046   0.0000   0.0000   0.0000   0.3690
   7.400   1.9763   0.02970   0.02219  -0.2635  0.3750  1.0000  -2.6263   0.0000   0.0000   0.0000   0.3680
   7.500   1.9839   0.02986   0.02239  -0.2628  0.3737  1.0000  -2.6480   0.0000   0.0000   0.0000   0.3669
   7.600   1.9915   0.03002   0.02259  -0.2622  0.3724  1.0000  -2.6698   0.0000   0.0000   0.0000   0.3659
   7.700   1.9991   0.03019   0.02279  -0.2615  0.3710  1.0000  -2.6971   0.0000   0.0000   0.0000   0.3649
   7.800   2.0069   0.03036   0.02299  -0.2608  0.3697  1.0000  -2.7285   0.0000   0.0000   0.0000   0.3638
   7.900   2.0146   0.03052   0.02318  -0.2602  0.3683  1.0000  -2.7602   0.0000   0.0000   0.0000   0.3628
   8.000   2.0224   0.03068   0.02336  -0.2596  0.3669  1.0000  -2.7920   0.0000   0.0000   0.0000   0.3618
   8.100   2.0302   0.03084   0.02354  -0.2589  0.3655  1.0000  -2.8242   0.0000   0.0000   0.0000   0.3608
   8.200   2.0382   0.03100   0.02371  -0.2583  0.3642  1.0000  -2.8566   0.0000   0.0000   0.0000   0.3598
   8.300   2.0462   0.03116   0.02389  -0.2578  0.3629  1.0000  -2.8893   0.0000   0.0000   0.0000   0.3588
   8.400   2.0544   0.03134   0.02408  -0.2572  0.3617  1.0000  -2.9224   0.0000   0.0000   0.0000   0.3578
   8.500   2.0627   0.03151   0.02427  -0.2567  0.3605  1.0000  -2.9557   0.0000   0.0000   0.0000   0.3569
   8.600   2.0711   0.03168   0.02444  -0.2562  0.3592  1.0000  -2.9894   0.0000   0.0000   0.0000   0.3559
   8.700   2.0795   0.03184   0.02460  -0.2557  0.3579  1.0000  -3.0233   0.0000   0.0000   0.0000   0.3550
   8.800   2.0880   0.03200   0.02476  -0.2552  0.3566  1.0000  -3.0576   0.0000   0.0000   0.0000   0.3540
   8.900   2.0966   0.03220   0.02495  -0.2548  0.3551  1.0000  -3.0922   0.0000   0.0000   0.0000   0.3531
   9.000   2.1056   0.03245   0.02520  -0.2545  0.3534  1.0000  -3.1276   0.0000   0.0000   0.0000   0.3522
   9.100   2.1165   0.03288   0.02561  -0.2546  0.3512  1.0000  -3.1660   0.0000   0.0000   0.0000   0.3515
   9.200   2.1275   0.03398   0.02673  -0.2551  0.3478  1.0000  -3.2032   0.0000   0.0000   0.0000   0.3508
   9.300   2.1325   0.03404   0.02684  -0.2539  0.3471  1.0000  -3.2319   0.0000   0.0000   0.0000   0.3498
   9.400   2.1372   0.03413   0.02699  -0.2526  0.3463  1.0000  -3.2603   0.0000   0.0000   0.0000   0.3487
   9.500   2.1417   0.03425   0.02716  -0.2514  0.3454  1.0000  -3.2882   0.0000   0.0000   0.0000   0.3477
   9.600   2.1454   0.03440   0.02737  -0.2499  0.3443  1.0000  -3.3147   0.0000   0.0000   0.0000   0.3466
   9.700   2.1485   0.03457   0.02760  -0.2484  0.3431  1.0000  -3.3402   0.0000   0.0000   0.0000   0.3455
   9.800   2.1509   0.03475   0.02795  -0.2468  0.3418  1.0000  -3.3644   0.0000   0.0000   0.0000   0.3444
   9.900   2.1532   0.03494   0.02820  -0.2451  0.3405  1.0000  -3.3885   0.0000   0.0000   0.0000   0.3433
  10.000   2.1558   0.03514   0.02845  -0.2435  0.3390  1.0000  -3.4133   0.0000   0.0000   0.0000   0.3423
  10.100   2.1586   0.03534   0.02870  -0.2420  0.3376  1.0000  -3.4385   0.0000   0.0000   0.0000   0.3412
  10.200   2.1615   0.03551   0.02891  -0.2405  0.3360  1.0000  -3.4640   0.0000   0.0000   0.0000   0.3401
  10.300   2.1646   0.03565   0.02909  -0.2390  0.3343  1.0000  -3.4901   0.0000   0.0000   0.0000   0.3391
  10.400   2.1679   0.03577   0.02923  -0.2375  0.3325  1.0000  -3.5170   0.0000   0.0000   0.0000   0.3380
  10.500   2.1715   0.03587   0.02935  -0.2361  0.3307  1.0000  -3.5445   0.0000   0.0000   0.0000   0.3370
  10.600   2.1754   0.03595   0.02944  -0.2348  0.3289  1.0000  -3.5726   0.0000   0.0000   0.0000   0.3359
  10.700   2.1795   0.03602   0.02951  -0.2335  0.3271  1.0000  -3.6015   0.0000   0.0000   0.0000   0.3349
  10.800   2.1839   0.03611   0.02960  -0.2323  0.3253  1.0000  -3.6308   0.0000   0.0000   0.0000   0.3339
  10.900   2.1882   0.03623   0.02971  -0.2311  0.3235  1.0000  -3.6602   0.0000   0.0000   0.0000   0.3329
  11.000   2.1934   0.03638   0.02985  -0.2300  0.3216  1.0000  -3.6912   0.0000   0.0000   0.0000   0.3320
  11.100   2.2008   0.03660   0.03004  -0.2295  0.3193  1.0000  -3.7261   0.0000   0.0000   0.0000   0.3311
  11.200   2.2134   0.03711   0.03051  -0.2300  0.3158  1.0000  -3.7699   0.0000   0.0000   0.0000   0.3305
  11.300   2.2158   0.03749   0.03095  -0.2286  0.3143  1.0000  -3.7982   0.0000   0.0000   0.0000   0.3296
  11.400   2.2149   0.03778   0.03132  -0.2265  0.3134  1.0000  -3.8202   0.0000   0.0000   0.0000   0.3284
  11.500   2.2142   0.03810   0.03172  -0.2245  0.3124  1.0000  -3.8425   0.0000   0.0000   0.0000   0.3274
  11.600   2.2140   0.03844   0.03214  -0.2226  0.3112  1.0000  -3.8656   0.0000   0.0000   0.0000   0.3263
  11.700   2.2139   0.03880   0.03258  -0.2208  0.3099  1.0000  -3.8892   0.0000   0.0000   0.0000   0.3253
  11.800   2.2141   0.03918   0.03304  -0.2190  0.3085  1.0000  -3.9134   0.0000   0.0000   0.0000   0.3242
  11.900   2.2148   0.03956   0.03349  -0.2174  0.3070  1.0000  -3.9386   0.0000   0.0000   0.0000   0.3232
  12.000   2.2158   0.03994   0.03393  -0.2158  0.3053  1.0000  -3.9645   0.0000   0.0000   0.0000   0.3223
  12.100   2.2168   0.04033   0.03437  -0.2143  0.3036  1.0000  -3.9907   0.0000   0.0000   0.0000   0.3213
  12.200   2.2182   0.04070   0.03480  -0.2128  0.3018  1.0000  -4.0176   0.0000   0.0000   0.0000   0.3203
  12.300   2.2199   0.04105   0.03520  -0.2114  0.3000  1.0000  -4.0454   0.0000   0.0000   0.0000   0.3194
  12.400   2.2219   0.04139   0.03558  -0.2101  0.2982  1.0000  -4.0739   0.0000   0.0000   0.0000   0.3185
  12.500   2.2237   0.04174   0.03597  -0.2087  0.2965  1.0000  -4.1021   0.0000   0.0000   0.0000   0.3175
  12.600   2.2254   0.04210   0.03635  -0.2074  0.2947  1.0000  -4.1302   0.0000   0.0000   0.0000   0.3166
  12.700   2.2275   0.04245   0.03672  -0.2061  0.2929  1.0000  -4.1593   0.0000   0.0000   0.0000   0.3157
  12.800   2.2302   0.04279   0.03706  -0.2049  0.2911  1.0000  -4.1898   0.0000   0.0000   0.0000   0.3148
  12.900   2.2331   0.04315   0.03741  -0.2038  0.2891  1.0000  -4.2206   0.0000   0.0000   0.0000   0.3140
  13.000   2.2366   0.04354   0.03779  -0.2028  0.2868  1.0000  -4.2529   0.0000   0.0000   0.0000   0.3131
  13.100   2.2428   0.04397   0.03824  -0.2022  0.2838  1.0000  -4.2909   0.0000   0.0000   0.0000   0.3124
  13.200   2.2408   0.04463   0.03900  -0.2005  0.2826  1.0000  -4.3102   0.0000   0.0000   0.0000   0.3115
  13.300   2.2383   0.04532   0.03979  -0.1988  0.2812  1.0000  -4.3283   0.0000   0.0000   0.0000   0.3106
  13.400   2.2358   0.04605   0.04062  -0.1972  0.2796  1.0000  -4.3461   0.0000   0.0000   0.0000   0.3097
  13.500   2.2335   0.04678   0.04145  -0.1957  0.2778  1.0000  -4.3646   0.0000   0.0000   0.0000   0.3088
  13.600   2.2318   0.04750   0.04225  -0.1942  0.2757  1.0000  -4.3843   0.0000   0.0000   0.0000   0.3080
  13.700   2.2298   0.04824   0.04306  -0.1928  0.2735  1.0000  -4.4035   0.0000   0.0000   0.0000   0.3072
  13.800   2.2281   0.04898   0.04387  -0.1914  0.2712  1.0000  -4.4231   0.0000   0.0000   0.0000   0.3064
  13.900   2.2268   0.04971   0.04466  -0.1901  0.2689  1.0000  -4.4440   0.0000   0.0000   0.0000   0.3056
  14.000   2.2260   0.05043   0.04541  -0.1889  0.2664  1.0000  -4.4660   0.0000   0.0000   0.0000   0.3048
  14.100   2.2252   0.05116   0.04617  -0.1878  0.2640  1.0000  -4.4882   0.0000   0.0000   0.0000   0.3041
  14.200   2.2249   0.05189   0.04690  -0.1867  0.2615  1.0000  -4.5114   0.0000   0.0000   0.0000   0.3034
  14.300   2.2245   0.05266   0.04765  -0.1857  0.2590  1.0000  -4.5343   0.0000   0.0000   0.0000   0.3026
  14.400   2.2234   0.05352   0.04849  -0.1846  0.2562  1.0000  -4.5556   0.0000   0.0000   0.0000   0.3019
  14.500   2.2221   0.05448   0.04945  -0.1836  0.2533  1.0000  -4.5758   0.0000   0.0000   0.0000   0.3013
  14.600   2.2184   0.05572   0.05081  -0.1826  0.2512  1.0000  -4.5893   0.0000   0.0000   0.0000   0.3007
  14.700   2.2149   0.05698   0.05218  -0.1816  0.2487  1.0000  -4.6032   0.0000   0.0000   0.0000   0.3001
  14.800   2.2112   0.05830   0.05358  -0.1807  0.2459  1.0000  -4.6166   0.0000   0.0000   0.0000   0.2995
  14.900   2.2080   0.05958   0.05492  -0.1799  0.2428  1.0000  -4.6313   0.0000   0.0000   0.0000   0.2990
  15.000   2.2044   0.06092   0.05631  -0.1791  0.2396  1.0000  -4.6450   0.0000   0.0000   0.0000   0.2985
  15.100   2.2003   0.06234   0.05774  -0.1783  0.2364  1.0000  -4.6574   0.0000   0.0000   0.0000   0.2980
  15.200   2.1963   0.06377   0.05917  -0.1776  0.2332  1.0000  -4.6701   0.0000   0.0000   0.0000   0.2976
  15.300   2.1912   0.06534   0.06073  -0.1769  0.2300  1.0000  -4.6797   0.0000   0.0000   0.0000   0.2972
  15.400   2.1858   0.06698   0.06233  -0.1763  0.2265  1.0000  -4.6882   0.0000   0.0000   0.0000   0.2968
  15.500   2.1809   0.06870   0.06412  -0.1758  0.2236  1.0000  -4.6969   0.0000   0.0000   0.0000   0.2964
  15.600   2.1748   0.07065   0.06617  -0.1754  0.2208  1.0000  -4.7017   0.0000   0.0000   0.0000   0.2962
  15.700   2.1684   0.07263   0.06823  -0.1751  0.2176  1.0000  -4.7061   0.0000   0.0000   0.0000   0.2960
  15.800   2.1617   0.07469   0.07034  -0.1749  0.2141  1.0000  -4.7092   0.0000   0.0000   0.0000   0.2959
  15.900   2.1538   0.07692   0.07260  -0.1747  0.2107  1.0000  -4.7091   0.0000   0.0000   0.0000   0.2958


