xflr5 v6.61

 Calculated polar for: S1223

 1 1 Reynolds number fixed          Mach number fixed         

 xtrf =   1.000 (top)        1.000 (bottom)
 Mach =   0.000     Re =     0.060 e 6     Ncrit =   9.000

  alpha     CL        CD       CDp       Cm    Top Xtr Bot Xtr   Cpmin    Chinge    XCp    
 ------- -------- --------- --------- -------- ------- ------- -------- --------- ---------
   0.000   1.0964   0.02958   0.02122  -0.2563  0.6506  0.4114  -1.3714   0.0000   0.0000   0.0000   0.4822
   0.500   1.1423   0.03092   0.02241  -0.2525  0.6335  0.5079  -1.4216   0.0000   0.0000   0.0000   0.4687
   1.000   1.2047   0.03189   0.02312  -0.2545  0.6147  0.5525  -1.4786   0.0000   0.0000   0.0000   0.4581
   1.500   1.2841   0.03311   0.02387  -0.2596  0.5994  0.5968  -1.5508   0.0000   0.0000   0.0000   0.4482
   2.000   1.3246   0.03496   0.02587  -0.2578  0.5873  0.6439  -1.5874   0.0000   0.0000   0.0000   0.4399
   2.500   1.3682   0.03660   0.02769  -0.2560  0.5764  0.7141  -1.6294   0.0000   0.0000   0.0000   0.4316
   3.000   1.4089   0.03786   0.02905  -0.2531  0.5676  0.8586  -1.6793   0.0000   0.0000   0.0000   0.4233
   3.500   1.4513   0.04174   0.03284  -0.2543  0.5568  1.0000  -1.7189   0.0000   0.0000   0.0000   0.4181
   4.000   1.4644   0.04642   0.03760  -0.2495  0.5465  1.0000  -1.7362   0.0000   0.0000   0.0000   0.4125
   4.500   1.4845   0.05107   0.04226  -0.2457  0.5383  1.0000  -1.7661   0.0000   0.0000   0.0000   0.4069
   5.000   1.5232   0.05518   0.04627  -0.2443  0.5311  1.0000  -1.8169   0.0000   0.0000   0.0000   0.4010
   5.500   1.0567   0.11156   0.10492  -0.2247  0.5554  1.0000  -1.1780   0.0000   0.0000   0.0000   0.4542
   6.000   1.1324   0.11987   0.11279  -0.2299  0.5636  1.0000  -1.2517   0.0000   0.0000   0.0000   0.4438
   6.500   1.0013   0.13565   0.12922  -0.2312  0.6120  1.0000  -1.0482   0.0000   0.0000   0.0000   0.4716
   7.000   1.0850   0.14495   0.13812  -0.2356  0.6037  1.0000  -1.1427   0.0000   0.0000   0.0000   0.4569
   7.500   1.0458   0.14704   0.14028  -0.2314  0.5770  1.0000  -1.0896   0.0000   0.0000   0.0000   0.4602
   8.000   1.1383   0.15724   0.15019  -0.2346  0.5664  1.0000  -1.2094   0.0000   0.0000   0.0000   0.4440


