xflr5 v6.61

 Calculated polar for: S1223

 1 1 Reynolds number fixed          Mach number fixed         

 xtrf =   1.000 (top)        1.000 (bottom)
 Mach =   0.000     Re =     0.080 e 6     Ncrit =   9.000

  alpha     CL        CD       CDp       Cm    Top Xtr Bot Xtr   Cpmin    Chinge    XCp    
 ------- -------- --------- --------- -------- ------- ------- -------- --------- ---------
   0.000   1.1457   0.02591   0.01724  -0.2636  0.5963  0.4136  -1.4252   0.0000   0.0000   0.0000   0.4783
   0.500   1.1984   0.02669   0.01790  -0.2624  0.5787  0.4668  -1.4810   0.0000   0.0000   0.0000   0.4664
   1.000   1.2735   0.02776   0.01848  -0.2666  0.5629  0.5060  -1.5532   0.0000   0.0000   0.0000   0.4559
   1.500   1.3297   0.02869   0.01943  -0.2671  0.5510  0.5407  -1.6083   0.0000   0.0000   0.0000   0.4466
   2.000   1.3899   0.02973   0.02047  -0.2682  0.5399  0.5924  -1.6683   0.0000   0.0000   0.0000   0.4379
   2.500   1.4475   0.03107   0.02175  -0.2686  0.5306  0.6694  -1.7274   0.0000   0.0000   0.0000   0.4296
   3.000   1.4834   0.03248   0.02355  -0.2648  0.5222  0.8003  -1.7716   0.0000   0.0000   0.0000   0.4218
   3.500   1.5246   0.03392   0.02502  -0.2630  0.5126  1.0000  -1.8216   0.0000   0.0000   0.0000   0.4150
   4.000   1.5728   0.03612   0.02712  -0.2623  0.5043  1.0000  -1.8791   0.0000   0.0000   0.0000   0.4085
   4.500   1.6230   0.03838   0.02927  -0.2618  0.4970  1.0000  -1.9482   0.0000   0.0000   0.0000   0.4021
   5.000   1.6672   0.04226   0.03321  -0.2608  0.4899  1.0000  -2.0095   0.0000   0.0000   0.0000   0.3964
   5.500   1.6796   0.04549   0.03683  -0.2543  0.4826  1.0000  -2.0443   0.0000   0.0000   0.0000   0.3906
   6.000   1.6846   0.04981   0.04148  -0.2472  0.4742  1.0000  -2.0746   0.0000   0.0000   0.0000   0.3852
   6.500   1.6916   0.05446   0.04636  -0.2409  0.4668  1.0000  -2.1094   0.0000   0.0000   0.0000   0.3801
   7.000   1.7401   0.05671   0.04854  -0.2399  0.4588  1.0000  -2.1995   0.0000   0.0000   0.0000   0.3746
   7.500   1.6964   0.06564   0.05782  -0.2281  0.4508  1.0000  -2.1754   0.0000   0.0000   0.0000   0.3704
   8.500   1.2514   0.14261   0.13613  -0.2226  0.4513  1.0000  -1.4470   0.0000   0.0000   0.0000   0.4139


