xflr5 v6.61

 Calculated polar for: S1223

 1 1 Reynolds number fixed          Mach number fixed         

 xtrf =   1.000 (top)        1.000 (bottom)
 Mach =   0.000     Re =     0.160 e 6     Ncrit =   9.000

  alpha     CL        CD       CDp       Cm    Top Xtr Bot Xtr   Cpmin    Chinge    XCp    
 ------- -------- --------- --------- -------- ------- ------- -------- --------- ---------
   0.000   1.1879   0.01921   0.01039  -0.2716  0.5004  0.2881  -1.4836   0.0000   0.0000   0.0000   0.4764
   0.500   1.2427   0.02053   0.01174  -0.2710  0.4874  0.3754  -1.5456   0.0000   0.0000   0.0000   0.4650
   1.000   1.3011   0.02099   0.01213  -0.2712  0.4781  0.4010  -1.6101   0.0000   0.0000   0.0000   0.4546
   1.500   1.3630   0.02142   0.01252  -0.2724  0.4689  0.4306  -1.6779   0.0000   0.0000   0.0000   0.4451
   2.000   1.4266   0.02213   0.01318  -0.2740  0.4603  0.4721  -1.7475   0.0000   0.0000   0.0000   0.4365
   2.500   1.4910   0.02329   0.01435  -0.2758  0.4516  0.5387  -1.8160   0.0000   0.0000   0.0000   0.4286
   3.000   1.5444   0.02377   0.01514  -0.2751  0.4452  0.6441  -1.8778   0.0000   0.0000   0.0000   0.4209
   3.500   1.5784   0.02395   0.01578  -0.2701  0.4393  0.9111  -1.9278   0.0000   0.0000   0.0000   0.4130
   4.000   1.6338   0.02490   0.01661  -0.2701  0.4329  1.0000  -1.9991   0.0000   0.0000   0.0000   0.4064
   4.500   1.6889   0.02599   0.01767  -0.2701  0.4269  1.0000  -2.0725   0.0000   0.0000   0.0000   0.4001
   5.000   1.7450   0.02767   0.01923  -0.2705  0.4203  1.0000  -2.1530   0.0000   0.0000   0.0000   0.3943
   5.500   1.7928   0.02929   0.02096  -0.2693  0.4143  1.0000  -2.2297   0.0000   0.0000   0.0000   0.3886
   6.000   1.8375   0.03046   0.02229  -0.2673  0.4094  1.0000  -2.3154   0.0000   0.0000   0.0000   0.3830
   6.500   1.8803   0.03165   0.02361  -0.2649  0.4028  1.0000  -2.4032   0.0000   0.0000   0.0000   0.3775
   7.000   1.9246   0.03275   0.02477  -0.2628  0.3960  1.0000  -2.5002   0.0000   0.0000   0.0000   0.3722
   7.500   1.9725   0.03383   0.02602  -0.2615  0.3894  1.0000  -2.6187   0.0000   0.0000   0.0000   0.3672
   8.000   2.0150   0.03658   0.02887  -0.2598  0.3811  1.0000  -2.7601   0.0000   0.0000   0.0000   0.3626
   8.500   2.0448   0.03758   0.03016  -0.2551  0.3754  1.0000  -2.9031   0.0000   0.0000   0.0000   0.3574
   9.000   2.0725   0.03902   0.03187  -0.2501  0.3683  1.0000  -3.0444   0.0000   0.0000   0.0000   0.3523
   9.500   2.1059   0.03984   0.03280  -0.2461  0.3603  1.0000  -3.2010   0.0000   0.0000   0.0000   0.3475
  10.000   2.1537   0.04048   0.03347  -0.2448  0.3516  1.0000  -3.3884   0.0000   0.0000   0.0000   0.3431
  10.500   2.1650   0.04281   0.03614  -0.2374  0.3438  1.0000  -3.5061   0.0000   0.0000   0.0000   0.3381
  11.000   2.1574   0.04445   0.03813  -0.2265  0.3359  1.0000  -3.5914   0.0000   0.0000   0.0000   0.3324
  11.500   2.1740   0.04492   0.03870  -0.2197  0.3262  1.0000  -3.7278   0.0000   0.0000   0.0000   0.3273
  12.000   2.2176   0.04547   0.03911  -0.2178  0.3146  1.0000  -3.9420   0.0000   0.0000   0.0000   0.3233
  12.500   2.1886   0.04864   0.04280  -0.2053  0.3080  1.0000  -3.9957   0.0000   0.0000   0.0000   0.3177
  13.000   2.1776   0.05166   0.04615  -0.1967  0.2985  1.0000  -4.0883   0.0000   0.0000   0.0000   0.3131
  13.500   2.1926   0.05296   0.04752  -0.1916  0.2888  1.0000  -4.2436   0.0000   0.0000   0.0000   0.3088


