xflr5 v6.61

 Calculated polar for: S1223

 1 1 Reynolds number fixed          Mach number fixed         

 xtrf =   1.000 (top)        1.000 (bottom)
 Mach =   0.000     Re =     0.030 e 6     Ncrit =   9.000

  alpha     CL        CD       CDp       Cm    Top Xtr Bot Xtr   Cpmin    Chinge    XCp    
 ------- -------- --------- --------- -------- ------- ------- -------- --------- ---------
   0.000  -0.1498   0.11439   0.10937  -0.0234  0.8543  0.3848  -0.8315   0.0000   0.0000   0.0000   0.0802
   1.000  -0.2752   0.11380   0.10935  -0.0029  0.9848  0.3824  -0.9029   0.0000   0.0000   0.0000   0.2317
   1.500  -0.2544   0.11066   0.10629  -0.0049  0.9828  0.4244  -0.8791   0.0000   0.0000   0.0000   0.2226
   2.000  -0.2294   0.10899   0.10471  -0.0070  0.9795  0.5048  -0.8488   0.0000   0.0000   0.0000   0.2113
   3.500  -0.2569   0.09568   0.09182   0.0290  0.9588  0.7896  -0.8087   0.0000   0.0000   0.0000   0.3568
   4.000  -0.2317   0.09193   0.08812   0.0263  0.9510  0.8266  -0.8026   0.0000   0.0000   0.0000   0.3575
   4.500   0.6319   0.12008   0.11330  -0.2006  0.9286  0.5713  -0.8585   0.0000   0.0000   0.0000   0.5622
   5.000   0.6403   0.12162   0.11497  -0.1935  0.9176  0.7457  -0.8073   0.0000   0.0000   0.0000   0.5458
   5.500   0.6955   0.12780   0.12090  -0.1985  0.9062  0.8972  -0.7834   0.0000   0.0000   0.0000   0.5281
   6.000   0.7682   0.13477   0.12723  -0.2131  0.8804  1.0000  -0.8193   0.0000   0.0000   0.0000   0.5193
   6.500   0.8439   0.14510   0.13662  -0.2255  0.8581  1.0000  -0.8670   0.0000   0.0000   0.0000   0.5082
   7.500   0.9094   0.15522   0.14601  -0.2296  0.8095  1.0000  -0.9197   0.0000   0.0000   0.0000   0.4917
   8.000   0.9354   0.15984   0.15042  -0.2304  0.7834  1.0000  -0.9382   0.0000   0.0000   0.0000   0.4847
   8.500   0.9621   0.16589   0.15634  -0.2317  0.7646  1.0000  -0.9651   0.0000   0.0000   0.0000   0.4783
   9.000   1.0218   0.17923   0.16946  -0.2366  0.7426  1.0000  -1.0265   0.0000   0.0000   0.0000   0.4681
   9.500   1.0294   0.17931   0.16952  -0.2350  0.7136  1.0000  -1.0354   0.0000   0.0000   0.0000   0.4640
  10.000   1.0400   0.18230   0.17248  -0.2349  0.6918  1.0000  -1.0496   0.0000   0.0000   0.0000   0.4606
  10.500   1.1108   0.20341   0.19349  -0.2402  0.6736  1.0000  -1.1332   0.0000   0.0000   0.0000   0.4501
  11.000   1.0988   0.19634   0.18651  -0.2375  0.6448  1.0000  -1.1250   0.0000   0.0000   0.0000   0.4491
  11.500   1.1092   0.20032   0.19053  -0.2381  0.6251  1.0000  -1.1416   0.0000   0.0000   0.0000   0.4466
  12.000   1.1576   0.21520   0.20562  -0.2405  0.6040  1.0000  -1.2161   0.0000   0.0000   0.0000   0.4387
  12.500   1.1489   0.21266   0.20314  -0.2403  0.5813  1.0000  -1.2104   0.0000   0.0000   0.0000   0.4392
  13.000   1.2016   0.23388   0.22442  -0.2427  0.5637  1.0000  -1.2983   0.0000   0.0000   0.0000   0.4311
  13.500   1.1862   0.22675   0.21740  -0.2429  0.5406  1.0000  -1.2841   0.0000   0.0000   0.0000   0.4327
  14.000   1.2228   0.24363   0.23439  -0.2446  0.5254  1.0000  -1.3584   0.0000   0.0000   0.0000   0.4270
  14.500   1.2226   0.24252   0.23340  -0.2453  0.4992  1.0000  -1.3656   0.0000   0.0000   0.0000   0.4265
  15.000   1.2528   0.26010   0.25112  -0.2471  0.4884  1.0000  -1.4188   0.0000   0.0000   0.0000   0.4221
  15.500   1.2464   0.25801   0.24917  -0.2484  0.4638  1.0000  -1.4032   0.0000   0.0000   0.0000   0.4230
  16.000   1.2715   0.27402   0.26532  -0.2498  0.4509  1.0000  -1.4392   0.0000   0.0000   0.0000   0.4191
  16.500   1.2653   0.27476   0.26652  -0.2518  0.4302  1.0000  -1.4161   0.0000   0.0000   0.0000   0.4205
  17.000   1.3093   0.29971   0.29169  -0.2523  0.4165  1.0000  -1.5098   0.0000   0.0000   0.0000   0.4131
  17.500   1.2810   0.29286   0.28495  -0.2549  0.3969  1.0000  -1.4395   0.0000   0.0000   0.0000   0.4181
  18.000   1.3222   0.31421   0.30655  -0.2549  0.3834  1.0000  -1.5230   0.0000   0.0000   0.0000   0.4108
  18.500   1.2967   0.31565   0.30808  -0.2578  0.3765  1.0000  -1.4423   0.0000   0.0000   0.0000   0.4156
  19.000   1.2989   0.32303   0.31564  -0.2584  0.3561  1.0000  -1.4323   0.0000   0.0000   0.0000   0.4145
  19.500   1.3324   0.34657   0.33937  -0.2590  0.3470  1.0000  -1.5003   0.0000   0.0000   0.0000   0.4087
  20.000   1.2808   0.34250   0.33549  -0.2587  0.3354  1.0000  -1.3800   0.0000   0.0000   0.0000   0.4152


