xflr5 v6.61

 Calculated polar for: S1223

 1 1 Reynolds number fixed          Mach number fixed         

 xtrf =   1.000 (top)        1.000 (bottom)
 Mach =   0.000     Re =     0.200 e 6     Ncrit =   9.000

  alpha     CL        CD       CDp       Cm    Top Xtr Bot Xtr   Cpmin    Chinge    XCp    
 ------- -------- --------- --------- -------- ------- ------- -------- --------- ---------
   0.000   1.1886   0.01778   0.00918  -0.2716  0.4789  0.2287  -1.4915   0.0000   0.0000   0.0000   0.4762
   0.500   1.2401   0.01861   0.01011  -0.2703  0.4679  0.3389  -1.5515   0.0000   0.0000   0.0000   0.4647
   1.000   1.3044   0.01945   0.01073  -0.2719  0.4562  0.3760  -1.6217   0.0000   0.0000   0.0000   0.4544
   1.500   1.3656   0.02002   0.01126  -0.2728  0.4493  0.4022  -1.6892   0.0000   0.0000   0.0000   0.4449
   2.000   1.4253   0.02041   0.01179  -0.2735  0.4425  0.4411  -1.7565   0.0000   0.0000   0.0000   0.4362
   2.500   1.4834   0.02090   0.01233  -0.2738  0.4347  0.4971  -1.8240   0.0000   0.0000   0.0000   0.4281
   3.000   1.5425   0.02148   0.01305  -0.2743  0.4274  0.5956  -1.8930   0.0000   0.0000   0.0000   0.4205
   3.500   1.6008   0.02242   0.01422  -0.2747  0.4196  0.7765  -1.9598   0.0000   0.0000   0.0000   0.4134
   4.500   1.6952   0.02390   0.01594  -0.2711  0.4109  1.0000  -2.0901   0.0000   0.0000   0.0000   0.4000
   5.000   1.7458   0.02479   0.01687  -0.2701  0.4056  1.0000  -2.1665   0.0000   0.0000   0.0000   0.3939
   5.500   1.7949   0.02562   0.01770  -0.2688  0.3993  1.0000  -2.2462   0.0000   0.0000   0.0000   0.3880
   6.000   1.8452   0.02657   0.01864  -0.2678  0.3939  1.0000  -2.3391   0.0000   0.0000   0.0000   0.3825
   6.500   1.8963   0.02773   0.01974  -0.2671  0.3873  1.0000  -2.4382   0.0000   0.0000   0.0000   0.3772
   7.000   1.9451   0.02973   0.02185  -0.2663  0.3805  1.0000  -2.5379   0.0000   0.0000   0.0000   0.3723
   7.500   1.9841   0.03046   0.02294  -0.2630  0.3755  1.0000  -2.6463   0.0000   0.0000   0.0000   0.3670
   8.000   2.0214   0.03133   0.02398  -0.2596  0.3688  1.0000  -2.7881   0.0000   0.0000   0.0000   0.3619
   8.500   2.0606   0.03220   0.02496  -0.2565  0.3622  1.0000  -2.9494   0.0000   0.0000   0.0000   0.3569
   9.000   2.1024   0.03300   0.02576  -0.2540  0.3554  1.0000  -3.1195   0.0000   0.0000   0.0000   0.3522
   9.500   2.1426   0.03499   0.02785  -0.2518  0.3464  1.0000  -3.2873   0.0000   0.0000   0.0000   0.3478
  10.000   2.1571   0.03583   0.02911  -0.2440  0.3405  1.0000  -3.4131   0.0000   0.0000   0.0000   0.3424
  10.500   2.1703   0.03668   0.03016  -0.2362  0.3324  1.0000  -3.5389   0.0000   0.0000   0.0000   0.3371
  11.000   2.1909   0.03709   0.03060  -0.2298  0.3234  1.0000  -3.6832   0.0000   0.0000   0.0000   0.3320
  11.500   2.2166   0.03868   0.03225  -0.2251  0.3133  1.0000  -3.8445   0.0000   0.0000   0.0000   0.3275
  12.000   2.2143   0.04058   0.03454  -0.2157  0.3067  1.0000  -3.9584   0.0000   0.0000   0.0000   0.3223
  12.500   2.2200   0.04248   0.03670  -0.2083  0.2978  1.0000  -4.0907   0.0000   0.0000   0.0000   0.3176
  13.000   2.2314   0.04422   0.03851  -0.2022  0.2885  1.0000  -4.2381   0.0000   0.0000   0.0000   0.3131
  13.500   2.2310   0.04733   0.04196  -0.1954  0.2791  1.0000  -4.3560   0.0000   0.0000   0.0000   0.3088
  14.000   2.2201   0.05121   0.04620  -0.1884  0.2681  1.0000  -4.4488   0.0000   0.0000   0.0000   0.3048
  14.500   2.2175   0.05505   0.05004  -0.1831  0.2551  1.0000  -4.5619   0.0000   0.0000   0.0000   0.3012
  15.000   2.1983   0.06166   0.05706  -0.1786  0.2419  1.0000  -4.6266   0.0000   0.0000   0.0000   0.2985
  15.500   2.1768   0.06907   0.06443  -0.1753  0.2254  1.0000  -4.6844   0.0000   0.0000   0.0000   0.2964


