xflr5 v6.61

 Calculated polar for: SD7037-092-88

 1 1 Reynolds number fixed          Mach number fixed         

 xtrf =   1.000 (top)        1.000 (bottom)
 Mach =   0.000     Re =     0.080 e 6     Ncrit =   9.000

  alpha     CL        CD       CDp       Cm    Top Xtr Bot Xtr   Cpmin    Chinge    XCp    
 ------- -------- --------- --------- -------- ------- ------- -------- --------- ---------
   0.000   0.2228   0.01924   0.01154  -0.0652  0.9292  1.0000  -0.5743   0.0000   0.0000   0.0000   0.5421
   0.500   0.3049   0.01977   0.01189  -0.0705  0.9015  1.0000  -0.5598   0.0000   0.0000   0.0000   0.4799
   1.000   0.3840   0.02001   0.01197  -0.0746  0.8725  1.0000  -0.6338   0.0000   0.0000   0.0000   0.4427
   1.500   0.4645   0.01995   0.01182  -0.0783  0.8445  1.0000  -0.7214   0.0000   0.0000   0.0000   0.4165
   2.000   0.5566   0.01912   0.01095  -0.0825  0.8227  1.0000  -0.8301   0.0000   0.0000   0.0000   0.3958
   2.500   0.6152   0.01868   0.01051  -0.0812  0.7869  1.0000  -0.9189   0.0000   0.0000   0.0000   0.3792
   3.000   0.6732   0.01835   0.01018  -0.0797  0.7497  1.0000  -1.0187   0.0000   0.0000   0.0000   0.3652
   3.500   0.7303   0.01809   0.01001  -0.0780  0.7101  1.0000  -1.1268   0.0000   0.0000   0.0000   0.3532
   4.000   0.7853   0.01808   0.00991  -0.0761  0.6663  1.0000  -1.2433   0.0000   0.0000   0.0000   0.3428
   4.500   0.8376   0.01832   0.01004  -0.0739  0.6183  1.0000  -1.3849   0.0000   0.0000   0.0000   0.3338
   5.000   0.8876   0.01882   0.01041  -0.0717  0.5676  1.0000  -1.5435   0.0000   0.0000   0.0000   0.3258
   5.500   0.9358   0.01952   0.01098  -0.0694  0.5152  1.0000  -1.7024   0.0000   0.0000   0.0000   0.3187
   6.000   0.9824   0.02043   0.01174  -0.0671  0.4620  1.0000  -1.9810   0.0000   0.0000   0.0000   0.3122
   6.500   1.0274   0.02159   0.01275  -0.0647  0.4093  1.0000  -2.2761   0.0000   0.0000   0.0000   0.3064
   7.000   1.0709   0.02303   0.01403  -0.0624  0.3581  1.0000  -2.6566   0.0000   0.0000   0.0000   0.3010
   7.500   1.1122   0.02526   0.01681  -0.0599  0.3031  1.0000  -3.2286   0.0000   0.0000   0.0000   0.2960
   8.000   1.1504   0.02714   0.01875  -0.0572  0.2573  1.0000  -3.6988   0.0000   0.0000   0.0000   0.2912
   8.500   1.1884   0.02975   0.02144  -0.0546  0.2170  1.0000  -4.1611   0.0000   0.0000   0.0000   0.2868
   9.000   1.2217   0.03230   0.02405  -0.0517  0.1791  1.0000  -4.6094   0.0000   0.0000   0.0000   0.2824
   9.500   1.2539   0.03562   0.02756  -0.0485  0.1482  1.0000  -5.0122   0.0000   0.0000   0.0000   0.2782
  10.000   1.2636   0.03642   0.02832  -0.0435  0.1112  1.0000  -5.3864   0.0000   0.0000   0.0000   0.2731
  10.500   1.2558   0.03871   0.03072  -0.0366  0.0754  1.0000  -5.5214   0.0000   0.0000   0.0000   0.2671
  11.000   1.2399   0.04447   0.03650  -0.0300  0.0485  1.0000  -5.3415   0.0000   0.0000   0.0000   0.2614
  11.500   1.2368   0.05344   0.04579  -0.0262  0.0406  1.0000  -5.2366   0.0000   0.0000   0.0000   0.2577
  12.000   1.2224   0.06066   0.05384  -0.0233  0.0385  1.0000  -5.1439   0.0000   0.0000   0.0000   0.2548
  12.500   1.1951   0.06973   0.06349  -0.0229  0.0381  1.0000  -5.0471   0.0000   0.0000   0.0000   0.2542
  13.000   1.1576   0.08078   0.07505  -0.0261  0.0383  1.0000  -4.9019   0.0000   0.0000   0.0000   0.2568
  13.500   1.1140   0.09468   0.08918  -0.0333  0.0395  1.0000  -4.7281   0.0000   0.0000   0.0000   0.2634
  14.000   1.0635   0.11212   0.10692  -0.0447  0.0405  1.0000  -4.3978   0.0000   0.0000   0.0000   0.2750
  14.500   0.9768   0.14796   0.14297  -0.0692  0.0497  1.0000  -3.3526   0.0000   0.0000   0.0000   0.3047
  15.000   0.9540   0.16663   0.16150  -0.0787  0.0516  1.0000  -2.8781   0.0000   0.0000   0.0000   0.3163
  15.500   0.9465   0.18181   0.17661  -0.0855  0.0533  1.0000  -2.5630   0.0000   0.0000   0.0000   0.3239
  16.000   0.9468   0.19551   0.19028  -0.0904  0.0568  1.0000  -2.3506   0.0000   0.0000   0.0000   0.3287
  16.500   0.9449   0.21540   0.21022  -0.0978  0.0907  1.0000  -1.9266   0.0000   0.0000   0.0000   0.3367
  17.000   0.9523   0.22674   0.22157  -0.1014  0.0900  1.0000  -1.8613   0.0000   0.0000   0.0000   0.3391
  17.500   0.9737   0.24065   0.23555  -0.1016  0.0876  1.0000  -1.9090   0.0000   0.0000   0.0000   0.3363
  18.000   0.9802   0.26046   0.25533  -0.1044  0.0856  1.0000  -1.8475   0.0000   0.0000   0.0000   0.3379
  18.500   0.9824   0.27020   0.26509  -0.1090  0.0851  1.0000  -1.7738   0.0000   0.0000   0.0000   0.3418
  19.000   0.9720   0.27576   0.27063  -0.1152  0.0839  1.0000  -1.6472   0.0000   0.0000   0.0000   0.3486
  19.500   0.9630   0.28209   0.27696  -0.1215  0.0785  1.0000  -1.5189   0.0000   0.0000   0.0000   0.3556
  20.000   0.9632   0.29208   0.28700  -0.1245  0.0734  1.0000  -1.4781   0.0000   0.0000   0.0000   0.3580


