xflr5 v6.61

 Calculated polar for: SD7037-092-88

 1 1 Reynolds number fixed          Mach number fixed         

 xtrf =   1.000 (top)        1.000 (bottom)
 Mach =   0.000     Re =     0.130 e 6     Ncrit =   9.000

  alpha     CL        CD       CDp       Cm    Top Xtr Bot Xtr   Cpmin    Chinge    XCp    
 ------- -------- --------- --------- -------- ------- ------- -------- --------- ---------
   0.000   0.3445   0.01349   0.00739  -0.0808  0.8841  1.0000  -0.5762   0.0000   0.0000   0.0000   0.4838
   0.500   0.4176   0.01306   0.00677  -0.0829  0.8638  1.0000  -0.6480   0.0000   0.0000   0.0000   0.4473
   1.000   0.4731   0.01278   0.00637  -0.0818  0.8346  1.0000  -0.7161   0.0000   0.0000   0.0000   0.4211
   1.500   0.5305   0.01251   0.00598  -0.0808  0.8056  1.0000  -0.7894   0.0000   0.0000   0.0000   0.4002
   2.000   0.5878   0.01224   0.00557  -0.0797  0.7732  1.0000  -0.8751   0.0000   0.0000   0.0000   0.3831
   2.500   0.6425   0.01216   0.00531  -0.0782  0.7348  1.0000  -0.9620   0.0000   0.0000   0.0000   0.3688
   3.000   0.6953   0.01234   0.00529  -0.0767  0.6923  1.0000  -1.0624   0.0000   0.0000   0.0000   0.3570
   3.500   0.7459   0.01264   0.00550  -0.0750  0.6474  1.0000  -1.1644   0.0000   0.0000   0.0000   0.3468
   4.000   0.7959   0.01308   0.00578  -0.0734  0.6016  1.0000  -1.2787   0.0000   0.0000   0.0000   0.3381
   4.500   0.8449   0.01362   0.00613  -0.0717  0.5522  1.0000  -1.4216   0.0000   0.0000   0.0000   0.3303
   5.000   0.8933   0.01428   0.00664  -0.0701  0.5038  1.0000  -1.5792   0.0000   0.0000   0.0000   0.3234
   5.500   0.9402   0.01506   0.00722  -0.0684  0.4521  1.0000  -1.7385   0.0000   0.0000   0.0000   0.3171
   6.000   0.9863   0.01599   0.00799  -0.0667  0.4021  1.0000  -2.0182   0.0000   0.0000   0.0000   0.3114
   6.500   1.0308   0.01709   0.00891  -0.0648  0.3506  1.0000  -2.3333   0.0000   0.0000   0.0000   0.3061
   7.000   1.0736   0.01834   0.01059  -0.0627  0.3011  1.0000  -2.8584   0.0000   0.0000   0.0000   0.3010
   7.500   1.1144   0.01970   0.01198  -0.0605  0.2539  1.0000  -3.3669   0.0000   0.0000   0.0000   0.2963
   8.000   1.1539   0.02130   0.01357  -0.0583  0.2132  1.0000  -3.8630   0.0000   0.0000   0.0000   0.2918
   8.500   1.1909   0.02308   0.01534  -0.0558  0.1760  1.0000  -4.3564   0.0000   0.0000   0.0000   0.2875
   9.000   1.2235   0.02461   0.01688  -0.0530  0.1405  1.0000  -4.8488   0.0000   0.0000   0.0000   0.2833
   9.500   1.2532   0.02584   0.01813  -0.0502  0.1056  1.0000  -5.3444   0.0000   0.0000   0.0000   0.2793
  10.000   1.2656   0.02876   0.02072  -0.0453  0.0478  1.0000  -5.5505   0.0000   0.0000   0.0000   0.2743
  10.500   1.2503   0.03425   0.02629  -0.0371  0.0278  1.0000  -5.3746   0.0000   0.0000   0.0000   0.2675
  11.000   1.2426   0.04130   0.03373  -0.0313  0.0244  1.0000  -5.2973   0.0000   0.0000   0.0000   0.2623
  11.500   1.2500   0.04685   0.03992  -0.0277  0.0234  1.0000  -5.3634   0.0000   0.0000   0.0000   0.2585
  12.000   1.2447   0.05389   0.04753  -0.0249  0.0232  1.0000  -5.3916   0.0000   0.0000   0.0000   0.2556
  12.500   1.2245   0.06227   0.05647  -0.0237  0.0233  1.0000  -5.3527   0.0000   0.0000   0.0000   0.2542
  13.000   1.1928   0.07227   0.06698  -0.0254  0.0235  1.0000  -5.2513   0.0000   0.0000   0.0000   0.2553
  13.500   1.1549   0.08461   0.07978  -0.0307  0.0237  1.0000  -5.0893   0.0000   0.0000   0.0000   0.2598
  14.000   1.1122   0.09950   0.09506  -0.0397  0.0239  1.0000  -4.8503   0.0000   0.0000   0.0000   0.2681
  15.000   1.0392   0.13313   0.12912  -0.0627  0.0251  1.0000  -4.2650   0.0000   0.0000   0.0000   0.2919
  15.500   0.9833   0.16511   0.16116  -0.0807  0.0285  1.0000  -3.2351   0.0000   0.0000   0.0000   0.3145
  16.000   0.9574   0.18923   0.18515  -0.0914  0.0337  1.0000  -2.5104   0.0000   0.0000   0.0000   0.3283
  16.500   0.9575   0.20305   0.19895  -0.0958  0.0386  1.0000  -2.3218   0.0000   0.0000   0.0000   0.3324
  17.000   0.9611   0.22799   0.22392  -0.0989  0.0611  1.0000  -1.9616   0.0000   0.0000   0.0000   0.3352
  17.500   0.9668   0.23974   0.23568  -0.1034  0.0610  1.0000  -1.8903   0.0000   0.0000   0.0000   0.3386
  18.000   0.9715   0.24999   0.24593  -0.1082  0.0604  1.0000  -1.8198   0.0000   0.0000   0.0000   0.3425
  18.500   0.9654   0.25752   0.25344  -0.1163  0.0563  1.0000  -1.6573   0.0000   0.0000   0.0000   0.3509
  19.000   0.9691   0.26835   0.26429  -0.1204  0.0521  1.0000  -1.6055   0.0000   0.0000   0.0000   0.3541
  19.500   0.9732   0.27898   0.27495  -0.1236  0.0490  1.0000  -1.5862   0.0000   0.0000   0.0000   0.3561
  20.000   0.9765   0.28915   0.28517  -0.1260  0.0464  1.0000  -1.5885   0.0000   0.0000   0.0000   0.3573


