xflr5 v6.61

 Calculated polar for: SD7037-092-88

 1 1 Reynolds number fixed          Mach number fixed         

 xtrf =   1.000 (top)        1.000 (bottom)
 Mach =   0.000     Re =     0.040 e 6     Ncrit =   9.000

  alpha     CL        CD       CDp       Cm    Top Xtr Bot Xtr   Cpmin    Chinge    XCp    
 ------- -------- --------- --------- -------- ------- ------- -------- --------- ---------
   0.000   0.0649   0.02288   0.01231  -0.0380  1.0000  1.0000  -0.9425   0.0000   0.0000   0.0000   0.8361
   0.500   0.1022   0.02423   0.01331  -0.0381  1.0000  1.0000  -0.7526   0.0000   0.0000   0.0000   0.6208
   1.000   0.1377   0.02586   0.01469  -0.0383  1.0000  1.0000  -0.5743   0.0000   0.0000   0.0000   0.5259
   1.500   0.1726   0.02780   0.01648  -0.0390  0.9992  1.0000  -0.4872   0.0000   0.0000   0.0000   0.4730
   2.000   0.2880   0.03141   0.01985  -0.0537  0.9536  1.0000  -0.5808   0.0000   0.0000   0.0000   0.4336
   2.500   0.3713   0.03407   0.02243  -0.0617  0.9097  1.0000  -0.6592   0.0000   0.0000   0.0000   0.4130
   3.000   0.4710   0.03638   0.02478  -0.0706  0.8631  1.0000  -0.7678   0.0000   0.0000   0.0000   0.3966
   3.500   0.5470   0.03819   0.02671  -0.0749  0.8184  1.0000  -0.8610   0.0000   0.0000   0.0000   0.3832
   4.000   0.6091   0.03970   0.02840  -0.0763  0.7708  1.0000  -0.9592   0.0000   0.0000   0.0000   0.3712
   4.500   0.6773   0.04079   0.02987  -0.0772  0.7241  1.0000  -1.0681   0.0000   0.0000   0.0000   0.3597
   5.000   0.7502   0.04132   0.03065  -0.0775  0.6778  1.0000  -1.2119   0.0000   0.0000   0.0000   0.3486
   5.500   0.8222   0.04099   0.03058  -0.0756  0.6287  1.0000  -1.3931   0.0000   0.0000   0.0000   0.3369
   6.000   0.8873   0.04115   0.03100  -0.0731  0.5808  1.0000  -1.5697   0.0000   0.0000   0.0000   0.3269
   6.500   0.9490   0.04105   0.03112  -0.0694  0.5275  1.0000  -1.8719   0.0000   0.0000   0.0000   0.3171
   7.000   0.9993   0.04252   0.03280  -0.0660  0.4777  1.0000  -2.1600   0.0000   0.0000   0.0000   0.3095
   7.500   1.0446   0.04436   0.03482  -0.0621  0.4276  1.0000  -2.4428   0.0000   0.0000   0.0000   0.3023
   8.000   1.0825   0.04714   0.03872  -0.0578  0.3765  1.0000  -2.9149   0.0000   0.0000   0.0000   0.2957
   8.500   1.1092   0.05176   0.04365  -0.0541  0.3373  1.0000  -3.2487   0.0000   0.0000   0.0000   0.2905
   9.000   1.1383   0.05540   0.04750  -0.0499  0.2950  1.0000  -3.6105   0.0000   0.0000   0.0000   0.2849
  10.000   0.9779   0.08896   0.08117  -0.0547  0.2943  1.0000  -2.7766   0.0000   0.0000   0.0000   0.2964
  10.500   0.9269   0.10542   0.09741  -0.0624  0.2899  1.0000  -2.4596   0.0000   0.0000   0.0000   0.3074
  11.000   0.8998   0.11865   0.11055  -0.0678  0.2887  1.0000  -2.2895   0.0000   0.0000   0.0000   0.3151
  11.500   0.8918   0.13202   0.12400  -0.0726  0.2963  1.0000  -2.2380   0.0000   0.0000   0.0000   0.3208
  12.000   0.8403   0.15093   0.14218  -0.0888  0.4085  1.0000  -1.7208   0.0000   0.0000   0.0000   0.3448
  12.500   0.8811   0.17035   0.16182  -0.0915  0.3964  1.0000  -1.8985   0.0000   0.0000   0.0000   0.3426
  13.000   0.9208   0.18487   0.17736  -0.0898  0.3505  1.0000  -2.2248   0.0000   0.0000   0.0000   0.3359
  13.500   0.8684   0.17699   0.16925  -0.0929  0.3438  1.0000  -2.0121   0.0000   0.0000   0.0000   0.3446
  14.000   0.8719   0.18061   0.17298  -0.0944  0.3181  1.0000  -2.0433   0.0000   0.0000   0.0000   0.3452
  14.500   0.9116   0.20302   0.19561  -0.0956  0.3025  1.0000  -2.1642   0.0000   0.0000   0.0000   0.3415
  15.500   0.9091   0.21115   0.20376  -0.0993  0.2557  1.0000  -2.0620   0.0000   0.0000   0.0000   0.3446
  16.000   0.9084   0.21513   0.20776  -0.1024  0.2334  1.0000  -1.9781   0.0000   0.0000   0.0000   0.3473
  16.500   0.9292   0.23160   0.22425  -0.1031  0.2156  1.0000  -1.9052   0.0000   0.0000   0.0000   0.3450
  17.000   0.9714   0.25484   0.24762  -0.1007  0.1807  1.0000  -1.9211   0.0000   0.0000   0.0000   0.3372
  17.500   0.9473   0.25201   0.24469  -0.1069  0.1782  1.0000  -1.7698   0.0000   0.0000   0.0000   0.3456
  18.000   0.9367   0.25483   0.24748  -0.1123  0.1667  1.0000  -1.6534   0.0000   0.0000   0.0000   0.3518
  18.500   0.9453   0.26503   0.25774  -0.1143  0.1566  1.0000  -1.6173   0.0000   0.0000   0.0000   0.3522
  19.000   0.9777   0.28442   0.27728  -0.1131  0.1480  1.0000  -1.6883   0.0000   0.0000   0.0000   0.3463
  19.500   0.9939   0.30608   0.29895  -0.1155  0.1452  1.0000  -1.6683   0.0000   0.0000   0.0000   0.3463
  20.000   0.9660   0.30381   0.29668  -0.1198  0.1434  1.0000  -1.5285   0.0000   0.0000   0.0000   0.3534


