xflr5 v6.61

 Calculated polar for: SD7032-099-88

 1 1 Reynolds number fixed          Mach number fixed         

 xtrf =   1.000 (top)        1.000 (bottom)
 Mach =   0.000     Re =     0.100 e 6     Ncrit =   9.000

  alpha     CL        CD       CDp       Cm    Top Xtr Bot Xtr   Cpmin    Chinge    XCp    
 ------- -------- --------- --------- -------- ------- ------- -------- --------- ---------
   0.000   0.4083   0.01719   0.01034  -0.0964  0.8603  1.0000  -0.6573   0.0000   0.0000   0.0000   0.4853
   0.500   0.4610   0.01719   0.01013  -0.0954  0.8321  1.0000  -0.7091   0.0000   0.0000   0.0000   0.4557
   1.000   0.5229   0.01698   0.00974  -0.0955  0.8074  1.0000  -0.7749   0.0000   0.0000   0.0000   0.4307
   1.500   0.5915   0.01638   0.00896  -0.0959  0.7859  1.0000  -0.8564   0.0000   0.0000   0.0000   0.4099
   2.000   0.6440   0.01635   0.00884  -0.0945  0.7547  1.0000  -0.9267   0.0000   0.0000   0.0000   0.3939
   2.500   0.7018   0.01618   0.00863  -0.0935  0.7254  1.0000  -1.0072   0.0000   0.0000   0.0000   0.3800
   3.000   0.7614   0.01603   0.00825  -0.0927  0.6948  1.0000  -1.0994   0.0000   0.0000   0.0000   0.3680
   3.500   0.8118   0.01621   0.00835  -0.0910  0.6572  1.0000  -1.1832   0.0000   0.0000   0.0000   0.3579
   4.000   0.8635   0.01660   0.00864  -0.0896  0.6196  1.0000  -1.2765   0.0000   0.0000   0.0000   0.3491
   4.500   0.9152   0.01708   0.00898  -0.0883  0.5813  1.0000  -1.3812   0.0000   0.0000   0.0000   0.3413
   5.000   0.9672   0.01777   0.00948  -0.0871  0.5440  1.0000  -1.5077   0.0000   0.0000   0.0000   0.3343
   5.500   1.0165   0.01840   0.00998  -0.0855  0.5043  1.0000  -1.6588   0.0000   0.0000   0.0000   0.3278
   6.000   1.0637   0.01922   0.01133  -0.0840  0.4683  1.0000  -1.8533   0.0000   0.0000   0.0000   0.3221
   6.500   1.1116   0.02028   0.01241  -0.0827  0.4339  1.0000  -2.0457   0.0000   0.0000   0.0000   0.3169
   7.000   1.1585   0.02142   0.01343  -0.0811  0.3973  1.0000  -2.2451   0.0000   0.0000   0.0000   0.3119
   7.500   1.2027   0.02239   0.01440  -0.0792  0.3620  1.0000  -2.6243   0.0000   0.0000   0.0000   0.3070
   8.000   1.2444   0.02359   0.01577  -0.0772  0.3279  1.0000  -3.0160   0.0000   0.0000   0.0000   0.3025
   8.500   1.2847   0.02507   0.01728  -0.0750  0.2938  1.0000  -3.4236   0.0000   0.0000   0.0000   0.2982
   9.000   1.3161   0.02583   0.01794  -0.0717  0.2524  1.0000  -3.8321   0.0000   0.0000   0.0000   0.2934
   9.500   1.3490   0.02787   0.02024  -0.0687  0.2195  1.0000  -4.1719   0.0000   0.0000   0.0000   0.2892
  10.000   1.3666   0.02919   0.02154  -0.0641  0.1813  1.0000  -4.5202   0.0000   0.0000   0.0000   0.2843
  10.500   1.3735   0.03085   0.02315  -0.0586  0.1442  1.0000  -4.8513   0.0000   0.0000   0.0000   0.2793
  11.000   1.3798   0.03365   0.02592  -0.0539  0.1180  1.0000  -5.1695   0.0000   0.0000   0.0000   0.2749
  11.500   1.3888   0.03675   0.02926  -0.0503  0.0973  1.0000  -5.5039   0.0000   0.0000   0.0000   0.2711
  12.000   1.3858   0.04105   0.03356  -0.0472  0.0711  1.0000  -5.7795   0.0000   0.0000   0.0000   0.2681
  12.500   1.3743   0.04700   0.03962  -0.0451  0.0490  1.0000  -5.9593   0.0000   0.0000   0.0000   0.2660
  13.000   1.3474   0.05553   0.04831  -0.0446  0.0324  1.0000  -5.9679   0.0000   0.0000   0.0000   0.2652
  13.500   1.3115   0.06624   0.05927  -0.0462  0.0261  1.0000  -5.8759   0.0000   0.0000   0.0000   0.2664
  14.000   1.2846   0.07722   0.07064  -0.0494  0.0220  1.0000  -5.8285   0.0000   0.0000   0.0000   0.2687
  14.500   1.2593   0.08882   0.08257  -0.0539  0.0197  1.0000  -5.7891   0.0000   0.0000   0.0000   0.2721
  15.000   1.2349   0.10070   0.09474  -0.0593  0.0182  1.0000  -5.7343   0.0000   0.0000   0.0000   0.2764
  15.500   1.2133   0.11215   0.10646  -0.0647  0.0169  1.0000  -5.6660   0.0000   0.0000   0.0000   0.2809
  16.000   1.1944   0.12275   0.11737  -0.0700  0.0159  1.0000  -5.5703   0.0000   0.0000   0.0000   0.2853
  16.500   1.1729   0.13575   0.13072  -0.0771  0.0156  1.0000  -5.4005   0.0000   0.0000   0.0000   0.2917
  17.000   1.1489   0.15160   0.14690  -0.0862  0.0157  1.0000  -5.1565   0.0000   0.0000   0.0000   0.3004
  17.500   1.1207   0.17123   0.16683  -0.0968  0.0165  1.0000  -4.7624   0.0000   0.0000   0.0000   0.3116
  18.000   1.0456   0.21590   0.21158  -0.1147  0.0224  1.0000  -3.0987   0.0000   0.0000   0.0000   0.3366
  18.500   1.0344   0.23543   0.23104  -0.1213  0.0224  1.0000  -2.7002   0.0000   0.0000   0.0000   0.3440
  19.000   1.0286   0.25248   0.24807  -0.1264  0.0227  1.0000  -2.4291   0.0000   0.0000   0.0000   0.3492
  19.500   1.0240   0.26815   0.26373  -0.1305  0.0237  1.0000  -2.2247   0.0000   0.0000   0.0000   0.3533
  20.000   1.0196   0.28217   0.27777  -0.1333  0.0255  1.0000  -2.0911   0.0000   0.0000   0.0000   0.3561


