xflr5 v6.61

 Calculated polar for: SD7062 (14%)

 1 1 Reynolds number fixed          Mach number fixed         

 xtrf =   1.000 (top)        1.000 (bottom)
 Mach =   0.000     Re =     0.160 e 6     Ncrit =   9.000

  alpha     CL        CD       CDp       Cm    Top Xtr Bot Xtr   Cpmin    Chinge    XCp    
 ------- -------- --------- --------- -------- ------- ------- -------- --------- ---------
   0.000   0.4162   0.01306   0.00710  -0.0768  0.6552  0.8570  -0.8873   0.0000   0.0000   0.0000   0.4327
   0.500   0.4752   0.01297   0.00683  -0.0757  0.6345  0.9439  -0.9495   0.0000   0.0000   0.0000   0.4066
   1.000   0.5612   0.01298   0.00670  -0.0821  0.6138  1.0000  -1.0379   0.0000   0.0000   0.0000   0.3931
   1.500   0.6124   0.01312   0.00649  -0.0814  0.5918  1.0000  -1.1036   0.0000   0.0000   0.0000   0.3790
   2.000   0.6650   0.01355   0.00676  -0.0810  0.5715  1.0000  -1.1698   0.0000   0.0000   0.0000   0.3672
   2.500   0.7183   0.01379   0.00690  -0.0804  0.5511  1.0000  -1.2454   0.0000   0.0000   0.0000   0.3568
   3.000   0.7720   0.01433   0.00717  -0.0800  0.5287  1.0000  -1.3255   0.0000   0.0000   0.0000   0.3478
   3.500   0.8240   0.01459   0.00737  -0.0792  0.5084  1.0000  -1.4051   0.0000   0.0000   0.0000   0.3397
   4.000   0.8778   0.01530   0.00776  -0.0788  0.4853  1.0000  -1.4918   0.0000   0.0000   0.0000   0.3327
   4.500   0.9283   0.01568   0.00820  -0.0779  0.4681  1.0000  -1.5845   0.0000   0.0000   0.0000   0.3263
   5.000   0.9797   0.01609   0.00841  -0.0770  0.4461  1.0000  -1.6811   0.0000   0.0000   0.0000   0.3203
   5.500   1.0301   0.01690   0.00918  -0.0763  0.4270  1.0000  -1.7784   0.0000   0.0000   0.0000   0.3152
   6.000   1.0794   0.01741   0.00980  -0.0752  0.4083  1.0000  -1.8901   0.0000   0.0000   0.0000   0.3102
   6.500   1.1291   0.01843   0.01059  -0.0745  0.3858  1.0000  -2.0040   0.0000   0.0000   0.0000   0.3057
   7.000   1.1751   0.01894   0.01123  -0.0731  0.3697  1.0000  -2.1151   0.0000   0.0000   0.0000   0.3012
   7.500   1.2219   0.01975   0.01188  -0.0718  0.3510  1.0000  -2.2372   0.0000   0.0000   0.0000   0.2971
   8.000   1.2666   0.02087   0.01304  -0.0705  0.3336  1.0000  -2.3678   0.0000   0.0000   0.0000   0.2932
   8.500   1.3083   0.02154   0.01376  -0.0686  0.3163  1.0000  -2.4989   0.0000   0.0000   0.0000   0.2892
   9.000   1.3524   0.02319   0.01522  -0.0674  0.2964  1.0000  -2.6315   0.0000   0.0000   0.0000   0.2859
   9.500   1.3882   0.02411   0.01662  -0.0648  0.2848  1.0000  -2.7664   0.0000   0.0000   0.0000   0.2819
  10.000   1.4222   0.02509   0.01762  -0.0621  0.2693  1.0000  -2.9178   0.0000   0.0000   0.0000   0.2780
  10.500   1.4567   0.02695   0.01944  -0.0598  0.2521  1.0000  -3.0669   0.0000   0.0000   0.0000   0.2746
  11.000   1.4773   0.02826   0.02099  -0.0555  0.2414  1.0000  -3.2204   0.0000   0.0000   0.0000   0.2703
  11.500   1.4974   0.02981   0.02260  -0.0516  0.2292  1.0000  -3.3760   0.0000   0.0000   0.0000   0.2662
  12.000   1.5237   0.03249   0.02524  -0.0491  0.2138  1.0000  -3.5414   0.0000   0.0000   0.0000   0.2631
  12.500   1.5294   0.03468   0.02773  -0.0449  0.2055  1.0000  -3.6634   0.0000   0.0000   0.0000   0.2593
  13.000   1.5372   0.03726   0.03047  -0.0417  0.1949  1.0000  -3.7912   0.0000   0.0000   0.0000   0.2561
  13.500   1.5516   0.04034   0.03348  -0.0393  0.1827  1.0000  -3.9326   0.0000   0.0000   0.0000   0.2533
  14.000   1.5533   0.04473   0.03828  -0.0371  0.1746  1.0000  -4.0353   0.0000   0.0000   0.0000   0.2508
  14.500   1.5455   0.04950   0.04336  -0.0356  0.1672  1.0000  -4.1134   0.0000   0.0000   0.0000   0.2488
  15.000   1.5405   0.05423   0.04825  -0.0347  0.1585  1.0000  -4.1999   0.0000   0.0000   0.0000   0.2472
  15.500   1.5445   0.05877   0.05274  -0.0339  0.1477  1.0000  -4.3373   0.0000   0.0000   0.0000   0.2454
  16.000   1.5228   0.06696   0.06130  -0.0345  0.1418  1.0000  -4.3742   0.0000   0.0000   0.0000   0.2451
  16.500   1.4861   0.07764   0.07240  -0.0376  0.1371  1.0000  -4.3483   0.0000   0.0000   0.0000   0.2465
  17.000   1.4380   0.09096   0.08610  -0.0429  0.1314  1.0000  -4.2607   0.0000   0.0000   0.0000   0.2498
  18.000   1.4130   0.10700   0.10234  -0.0496  0.1168  1.0000  -4.3529   0.0000   0.0000   0.0000   0.2527
  18.500   1.0345   0.20749   0.20312  -0.1032  0.1010  1.0000  -2.1793   0.0000   0.0000   0.0000   0.3215
  19.000   1.0353   0.21881   0.21452  -0.1077  0.0956  1.0000  -2.1502   0.0000   0.0000   0.0000   0.3251
  19.500   1.0750   0.21568   0.21147  -0.1055  0.0898  1.0000  -2.4563   0.0000   0.0000   0.0000   0.3173
  20.000   1.0551   0.23435   0.23016  -0.1129  0.0829  1.0000  -2.2700   0.0000   0.0000   0.0000   0.3258


