xflr5 v6.61

 Calculated polar for: SD7062 (14%)

 1 1 Reynolds number fixed          Mach number fixed         

 xtrf =   1.000 (top)        1.000 (bottom)
 Mach =   0.000     Re =     0.100 e 6     Ncrit =   9.000

  alpha     CL        CD       CDp       Cm    Top Xtr Bot Xtr   Cpmin    Chinge    XCp    
 ------- -------- --------- --------- -------- ------- ------- -------- --------- ---------
   0.000   0.4193   0.01847   0.01200  -0.0798  0.6995  0.9705  -0.8739   0.0000   0.0000   0.0000   0.4390
   0.500   0.5037   0.01817   0.01121  -0.0854  0.6791  1.0000  -0.9544   0.0000   0.0000   0.0000   0.4175
   1.000   0.5400   0.01865   0.01152  -0.0834  0.6562  1.0000  -1.0037   0.0000   0.0000   0.0000   0.4015
   1.500   0.5974   0.01869   0.01121  -0.0830  0.6375  1.0000  -1.0736   0.0000   0.0000   0.0000   0.3853
   2.000   0.6451   0.01938   0.01177  -0.0818  0.6148  1.0000  -1.1335   0.0000   0.0000   0.0000   0.3726
   2.500   0.7013   0.01938   0.01160  -0.0811  0.5935  1.0000  -1.2115   0.0000   0.0000   0.0000   0.3608
   3.000   0.7523   0.02024   0.01230  -0.0803  0.5736  1.0000  -1.2861   0.0000   0.0000   0.0000   0.3513
   3.500   0.8038   0.02055   0.01249  -0.0793  0.5511  1.0000  -1.3636   0.0000   0.0000   0.0000   0.3426
   4.000   0.8591   0.02116   0.01282  -0.0786  0.5299  1.0000  -1.4506   0.0000   0.0000   0.0000   0.3348
   4.500   0.9055   0.02185   0.01357  -0.0773  0.5088  1.0000  -1.5357   0.0000   0.0000   0.0000   0.3281
   5.000   0.9618   0.02229   0.01375  -0.0767  0.4889  1.0000  -1.6359   0.0000   0.0000   0.0000   0.3219
   5.500   1.0056   0.02338   0.01492  -0.0752  0.4677  1.0000  -1.7205   0.0000   0.0000   0.0000   0.3162
   6.000   1.0577   0.02374   0.01531  -0.0742  0.4473  1.0000  -1.8351   0.0000   0.0000   0.0000   0.3109
   6.500   1.1043   0.02529   0.01682  -0.0731  0.4285  1.0000  -1.9398   0.0000   0.0000   0.0000   0.3063
   7.000   1.1482   0.02605   0.01765  -0.0714  0.4083  1.0000  -2.0445   0.0000   0.0000   0.0000   0.3016
   7.500   1.2010   0.02733   0.01865  -0.0709  0.3869  1.0000  -2.1691   0.0000   0.0000   0.0000   0.2977
   8.000   1.2349   0.02864   0.02025  -0.0683  0.3710  1.0000  -2.2780   0.0000   0.0000   0.0000   0.2932
   8.500   1.2814   0.02937   0.02092  -0.0669  0.3531  1.0000  -2.4129   0.0000   0.0000   0.0000   0.2893
   9.000   1.3196   0.03141   0.02299  -0.0650  0.3351  1.0000  -2.5318   0.0000   0.0000   0.0000   0.2857
   9.500   1.3505   0.03278   0.02454  -0.0621  0.3183  1.0000  -2.6459   0.0000   0.0000   0.0000   0.2816
  10.000   1.3984   0.03424   0.02614  -0.0612  0.3010  1.0000  -2.8189   0.0000   0.0000   0.0000   0.2785
  10.500   1.4112   0.03731   0.02958  -0.0570  0.2883  1.0000  -2.9147   0.0000   0.0000   0.0000   0.2743
  11.000   1.4265   0.03910   0.03155  -0.0526  0.2737  1.0000  -3.0360   0.0000   0.0000   0.0000   0.2700
  11.500   1.4725   0.04163   0.03388  -0.0521  0.2550  1.0000  -3.2426   0.0000   0.0000   0.0000   0.2676
  12.000   1.4510   0.04525   0.03795  -0.0453  0.2483  1.0000  -3.2860   0.0000   0.0000   0.0000   0.2625
  12.500   1.4113   0.05165   0.04476  -0.0404  0.2395  1.0000  -3.2729   0.0000   0.0000   0.0000   0.2590
  13.000   1.3933   0.05761   0.05094  -0.0384  0.2295  1.0000  -3.3111   0.0000   0.0000   0.0000   0.2569
  13.500   1.4221   0.06138   0.05463  -0.0370  0.2151  1.0000  -3.4735   0.0000   0.0000   0.0000   0.2544
  14.500   0.9405   0.15657   0.15019  -0.0809  0.1952  1.0000  -1.8005   0.0000   0.0000   0.0000   0.3157
  15.000   1.0179   0.14871   0.14267  -0.0733  0.1824  1.0000  -2.1602   0.0000   0.0000   0.0000   0.2998
  15.500   0.9945   0.16379   0.15780  -0.0800  0.1754  1.0000  -2.0411   0.0000   0.0000   0.0000   0.3078
  16.000   0.9764   0.17873   0.17282  -0.0875  0.1735  1.0000  -1.9090   0.0000   0.0000   0.0000   0.3168
  16.500   0.9784   0.19232   0.18653  -0.0919  0.1753  1.0000  -1.8544   0.0000   0.0000   0.0000   0.3206
  17.500   0.9954   0.22482   0.21927  -0.0994  0.1780  1.0000  -1.7709   0.0000   0.0000   0.0000   0.3255
  18.000   0.9962   0.23609   0.23062  -0.1042  0.1775  1.0000  -1.7415   0.0000   0.0000   0.0000   0.3296
  18.500   0.9578   0.23728   0.23180  -0.1140  0.1650  1.0000  -1.5530   0.0000   0.0000   0.0000   0.3434
  19.000   0.9752   0.24435   0.23897  -0.1154  0.1529  1.0000  -1.6214   0.0000   0.0000   0.0000   0.3416
  19.500   1.0097   0.25343   0.24817  -0.1141  0.1475  1.0000  -1.7660   0.0000   0.0000   0.0000   0.3351
  20.000   1.0229   0.27577   0.27059  -0.1162  0.1440  1.0000  -1.7719   0.0000   0.0000   0.0000   0.3350


