xflr5 v6.61

 Calculated polar for: SD7032-099-88

 1 1 Reynolds number fixed          Mach number fixed         

 xtrf =   1.000 (top)        1.000 (bottom)
 Mach =   0.000     Re =     0.001 e 6     Ncrit =   9.000

  alpha     CL        CD       CDp       Cm    Top Xtr Bot Xtr   Cpmin    Chinge    XCp    
 ------- -------- --------- --------- -------- ------- ------- -------- --------- ---------
   0.000   0.0389   0.16692   0.05250  -0.0363  1.0000  1.0000  -0.6310   0.0000   0.0000   0.0000   1.1926
   0.500   0.0700   0.16686   0.05076  -0.0359  1.0000  1.0000  -0.5121   0.0000   0.0000   0.0000   0.7653
   1.000   0.1018   0.16693   0.04947  -0.0352  1.0000  1.0000  -0.4666   0.0000   0.0000   0.0000   0.5965
   1.500   0.1330   0.16718   0.04860  -0.0346  1.0000  1.0000  -0.4895   0.0000   0.0000   0.0000   0.5086
   2.000   0.1636   0.16762   0.04814  -0.0339  1.0000  1.0000  -0.5126   0.0000   0.0000   0.0000   0.4549
   2.500   0.1938   0.16834   0.04815  -0.0333  1.0000  1.0000  -0.5351   0.0000   0.0000   0.0000   0.4187
   3.000   0.2237   0.16943   0.04865  -0.0328  1.0000  1.0000  -0.5609   0.0000   0.0000   0.0000   0.3928
   3.500   0.2532   0.17081   0.04959  -0.0324  1.0000  1.0000  -0.5881   0.0000   0.0000   0.0000   0.3735
   4.000   0.2821   0.17246   0.05097  -0.0320  1.0000  1.0000  -0.6146   0.0000   0.0000   0.0000   0.3588
   4.500   0.3102   0.17434   0.05278  -0.0318  1.0000  1.0000  -0.6443   0.0000   0.0000   0.0000   0.3473
   5.000   0.3376   0.17648   0.05503  -0.0317  1.0000  1.0000  -0.6747   0.0000   0.0000   0.0000   0.3381
   5.500   0.3642   0.17888   0.05772  -0.0317  1.0000  1.0000  -0.7038   0.0000   0.0000   0.0000   0.3309
   6.000   0.3899   0.18153   0.06085  -0.0318  1.0000  1.0000  -0.7341   0.0000   0.0000   0.0000   0.3251
   6.500   0.4147   0.18442   0.06472  -0.0322  1.0000  1.0000  -0.7675   0.0000   0.0000   0.0000   0.3206
   7.000   0.4387   0.18755   0.06841  -0.0326  1.0000  1.0000  -0.7989   0.0000   0.0000   0.0000   0.3168
   7.500   0.4621   0.19093   0.07249  -0.0331  1.0000  1.0000  -0.8284   0.0000   0.0000   0.0000   0.3138
   8.000   0.4847   0.19456   0.07695  -0.0338  1.0000  1.0000  -0.8641   0.0000   0.0000   0.0000   0.3113
   8.500   0.5065   0.19844   0.08175  -0.0346  1.0000  1.0000  -0.8984   0.0000   0.0000   0.0000   0.3094
   9.000   0.5276   0.20258   0.08690  -0.0356  1.0000  1.0000  -0.9303   0.0000   0.0000   0.0000   0.3079
   9.500   0.5480   0.20696   0.09238  -0.0367  1.0000  1.0000  -0.9683   0.0000   0.0000   0.0000   0.3069
  10.000   0.5676   0.21161   0.09818  -0.0379  1.0000  1.0000  -1.0064   0.0000   0.0000   0.0000   0.3062
  10.500   0.5865   0.21651   0.10428  -0.0393  1.0000  1.0000  -1.0416   0.0000   0.0000   0.0000   0.3059
  11.000   0.6048   0.22166   0.11068  -0.0409  1.0000  1.0000  -1.0804   0.0000   0.0000   0.0000   0.3059
  11.500   0.6223   0.22706   0.11737  -0.0427  1.0000  1.0000  -1.1234   0.0000   0.0000   0.0000   0.3062
  12.000   0.6392   0.23271   0.12432  -0.0445  1.0000  1.0000  -1.1627   0.0000   0.0000   0.0000   0.3067
  12.500   0.6554   0.23859   0.13151  -0.0466  1.0000  1.0000  -1.1983   0.0000   0.0000   0.0000   0.3075
  13.000   0.6711   0.24469   0.13887  -0.0487  1.0000  1.0000  -1.2380   0.0000   0.0000   0.0000   0.3084
  13.500   0.6865   0.25090   0.14884  -0.0508  1.0000  1.0000  -1.2891   0.0000   0.0000   0.0000   0.3094
  14.000   0.7006   0.25732   0.15651  -0.0533  1.0000  1.0000  -1.3279   0.0000   0.0000   0.0000   0.3109
  14.500   0.7140   0.26397   0.16447  -0.0559  1.0000  1.0000  -1.3627   0.0000   0.0000   0.0000   0.3124
  15.000   0.7269   0.27085   0.17269  -0.0586  1.0000  1.0000  -1.3933   0.0000   0.0000   0.0000   0.3141
  15.500   0.7390   0.27795   0.18116  -0.0613  1.0000  1.0000  -1.4196   0.0000   0.0000   0.0000   0.3158
  16.000   0.7504   0.28527   0.18986  -0.0641  1.0000  1.0000  -1.4414   0.0000   0.0000   0.0000   0.3176
  16.500   0.7611   0.29277   0.19875  -0.0669  1.0000  1.0000  -1.4586   0.0000   0.0000   0.0000   0.3194
  17.000   0.7711   0.30043   0.20781  -0.0697  1.0000  1.0000  -1.4712   0.0000   0.0000   0.0000   0.3213
  17.500   0.7802   0.30823   0.21701  -0.0726  1.0000  1.0000  -1.5230   0.0000   0.0000   0.0000   0.3231
  18.000   0.7885   0.31611   0.22630  -0.0754  1.0000  1.0000  -1.5791   0.0000   0.0000   0.0000   0.3250
  18.500   0.7959   0.32403   0.23564  -0.0781  1.0000  1.0000  -1.6293   0.0000   0.0000   0.0000   0.3268
  19.000   0.8023   0.33194   0.24496  -0.0807  1.0000  1.0000  -1.6733   0.0000   0.0000   0.0000   0.3287
  19.500   0.8078   0.33977   0.25421  -0.0833  1.0000  1.0000  -1.7110   0.0000   0.0000   0.0000   0.3305
  20.000   0.8122   0.34747   0.26330  -0.0858  1.0000  1.0000  -1.7421   0.0000   0.0000   0.0000   0.3323


