xflr5 v6.61

 Calculated polar for: SD7062 (14%)

 1 1 Reynolds number fixed          Mach number fixed         

 xtrf =   1.000 (top)        1.000 (bottom)
 Mach =   0.000     Re =     0.030 e 6     Ncrit =   9.000

  alpha     CL        CD       CDp       Cm    Top Xtr Bot Xtr   Cpmin    Chinge    XCp    
 ------- -------- --------- --------- -------- ------- ------- -------- --------- ---------
   0.000  -0.0941   0.03842   0.02975  -0.0347  1.0000  1.0000  -1.5699   0.0000   0.0000   0.0000  -0.1284
   0.500   0.0112   0.04326   0.03335  -0.0491  0.9626  1.0000  -1.2034   0.0000   0.0000   0.0000   4.6999
   1.000   0.0793   0.04700   0.03640  -0.0561  0.9345  1.0000  -0.9310   0.0000   0.0000   0.0000   0.9599
   1.500   0.1383   0.05118   0.03987  -0.0616  0.9185  1.0000  -0.7246   0.0000   0.0000   0.0000   0.6943
   2.000   0.2022   0.05542   0.04365  -0.0671  0.8870  1.0000  -0.6372   0.0000   0.0000   0.0000   0.5791
   2.500   0.2239   0.05820   0.04621  -0.0668  0.8737  1.0000  -0.6493   0.0000   0.0000   0.0000   0.5447
   4.500   0.2283   0.06974   0.05730  -0.0574  0.9814  1.0000  -0.6329   0.0000   0.0000   0.0000   0.4935
   5.500   0.3373   0.08281   0.07015  -0.0702  0.9115  1.0000  -0.7090   0.0000   0.0000   0.0000   0.4500
   6.000   0.3832   0.08874   0.07603  -0.0743  0.8705  1.0000  -0.7487   0.0000   0.0000   0.0000   0.4355
   6.500   0.4312   0.09698   0.08422  -0.0792  0.8498  1.0000  -0.7875   0.0000   0.0000   0.0000   0.4248
   7.000   0.4837   0.10507   0.09238  -0.0840  0.8166  1.0000  -0.8294   0.0000   0.0000   0.0000   0.4144
   7.500   0.5059   0.10835   0.09566  -0.0837  0.7784  1.0000  -0.8541   0.0000   0.0000   0.0000   0.4059
   8.000   0.5171   0.11201   0.09932  -0.0830  0.7527  1.0000  -0.8656   0.0000   0.0000   0.0000   0.4003
   8.500   0.5879   0.12547   0.11280  -0.0900  0.7289  1.0000  -0.9391   0.0000   0.0000   0.0000   0.3925
   9.000   0.5690   0.12364   0.11101  -0.0859  0.7068  1.0000  -0.9115   0.0000   0.0000   0.0000   0.3898
   9.500   0.6497   0.14207   0.12948  -0.0935  0.6787  1.0000  -0.9951   0.0000   0.0000   0.0000   0.3823
  10.000   0.6262   0.13564   0.12311  -0.0887  0.6477  1.0000  -0.9717   0.0000   0.0000   0.0000   0.3794
  10.500   0.7174   0.16092   0.14849  -0.0976  0.6314  1.0000  -1.0837   0.0000   0.0000   0.0000   0.3735
  11.000   0.6637   0.14710   0.13471  -0.0911  0.6099  1.0000  -1.0130   0.0000   0.0000   0.0000   0.3739
  12.000   0.7070   0.15880   0.14678  -0.0936  0.5609  1.0000  -1.0522   0.0000   0.0000   0.0000   0.3678
  12.500   0.7541   0.17124   0.15937  -0.0964  0.5394  1.0000  -1.1223   0.0000   0.0000   0.0000   0.3627
  13.000   0.7814   0.18578   0.17399  -0.0995  0.5307  1.0000  -1.1598   0.0000   0.0000   0.0000   0.3616
  13.500   0.7625   0.17699   0.16524  -0.0986  0.5072  1.0000  -1.1299   0.0000   0.0000   0.0000   0.3626
  14.000   0.8622   0.21595   0.20444  -0.1047  0.4840  1.0000  -1.2875   0.0000   0.0000   0.0000   0.3543
  14.500   0.7998   0.19137   0.17981  -0.1020  0.4693  1.0000  -1.1834   0.0000   0.0000   0.0000   0.3595
  15.000   0.8237   0.19880   0.18739  -0.1036  0.4475  1.0000  -1.2384   0.0000   0.0000   0.0000   0.3570
  15.500   0.9008   0.23775   0.22658  -0.1085  0.4351  1.0000  -1.3798   0.0000   0.0000   0.0000   0.3512
  16.000   0.8494   0.21541   0.20420  -0.1083  0.4259  1.0000  -1.2785   0.0000   0.0000   0.0000   0.3571
  16.500   0.8615   0.22041   0.20934  -0.1100  0.4038  1.0000  -1.2968   0.0000   0.0000   0.0000   0.3565
  17.000   0.9232   0.25244   0.24159  -0.1125  0.3868  1.0000  -1.4051   0.0000   0.0000   0.0000   0.3501
  17.500   0.8853   0.23738   0.22653  -0.1143  0.3736  1.0000  -1.3089   0.0000   0.0000   0.0000   0.3563
  18.000   0.9014   0.24567   0.23498  -0.1161  0.3546  1.0000  -1.3193   0.0000   0.0000   0.0000   0.3552
  19.000   0.9413   0.27625   0.26631  -0.1207  0.3389  1.0000  -1.3824   0.0000   0.0000   0.0000   0.3531
  19.500   0.9224   0.27210   0.26225  -0.1230  0.3189  1.0000  -1.3322   0.0000   0.0000   0.0000   0.3573
  20.000   0.9750   0.29605   0.28649  -0.1234  0.2993  1.0000  -1.4692   0.0000   0.0000   0.0000   0.3497


