xflr5 v6.61

 Calculated polar for: SD7037-092-88

 1 1 Reynolds number fixed          Mach number fixed         

 xtrf =   1.000 (top)        1.000 (bottom)
 Mach =   0.000     Re =     0.060 e 6     Ncrit =   9.000

  alpha     CL        CD       CDp       Cm    Top Xtr Bot Xtr   Cpmin    Chinge    XCp    
 ------- -------- --------- --------- -------- ------- ------- -------- --------- ---------
   0.000   0.1041   0.02105   0.01239  -0.0463  0.9832  1.0000  -0.8534   0.0000   0.0000   0.0000   0.6946
   0.500   0.2071   0.02289   0.01385  -0.0570  0.9524  1.0000  -0.5153   0.0000   0.0000   0.0000   0.5241
   1.000   0.2949   0.02424   0.01500  -0.0643  0.9197  1.0000  -0.5631   0.0000   0.0000   0.0000   0.4663
   1.500   0.3750   0.02520   0.01581  -0.0695  0.8843  1.0000  -0.6404   0.0000   0.0000   0.0000   0.4331
   2.000   0.4563   0.02579   0.01635  -0.0740  0.8491  1.0000  -0.7265   0.0000   0.0000   0.0000   0.4096
   2.500   0.5489   0.02574   0.01634  -0.0791  0.8175  1.0000  -0.8390   0.0000   0.0000   0.0000   0.3913
   3.000   0.6333   0.02493   0.01563  -0.0813  0.7840  1.0000  -0.9557   0.0000   0.0000   0.0000   0.3751
   3.500   0.6964   0.02453   0.01530  -0.0802  0.7448  1.0000  -1.0675   0.0000   0.0000   0.0000   0.3616
   4.000   0.7576   0.02409   0.01507  -0.0785  0.7038  1.0000  -1.1830   0.0000   0.0000   0.0000   0.3497
   4.500   0.8173   0.02379   0.01480  -0.0764  0.6591  1.0000  -1.3253   0.0000   0.0000   0.0000   0.3391
   5.000   0.8736   0.02378   0.01475  -0.0739  0.6102  1.0000  -1.4927   0.0000   0.0000   0.0000   0.3298
   5.500   0.9262   0.02413   0.01502  -0.0712  0.5579  1.0000  -1.6574   0.0000   0.0000   0.0000   0.3215
   6.000   0.9756   0.02494   0.01573  -0.0685  0.5045  1.0000  -1.9279   0.0000   0.0000   0.0000   0.3143
   6.500   1.0234   0.02622   0.01681  -0.0658  0.4490  1.0000  -2.2271   0.0000   0.0000   0.0000   0.3078
   7.000   1.0671   0.02803   0.01858  -0.0632  0.3970  1.0000  -2.5347   0.0000   0.0000   0.0000   0.3021
   7.500   1.1052   0.02995   0.02139  -0.0597  0.3419  1.0000  -3.0807   0.0000   0.0000   0.0000   0.2964
   8.000   1.1441   0.03251   0.02408  -0.0568  0.2954  1.0000  -3.5297   0.0000   0.0000   0.0000   0.2914
   8.500   1.1799   0.03520   0.02690  -0.0537  0.2515  1.0000  -3.9660   0.0000   0.0000   0.0000   0.2866
   9.000   1.2135   0.03881   0.03065  -0.0506  0.2136  1.0000  -4.3737   0.0000   0.0000   0.0000   0.2821
   9.500   1.2419   0.04274   0.03472  -0.0472  0.1784  1.0000  -4.7462   0.0000   0.0000   0.0000   0.2777
  10.000   1.2645   0.04775   0.03995  -0.0434  0.1465  1.0000  -5.0278   0.0000   0.0000   0.0000   0.2734
  10.500   1.2668   0.04837   0.04060  -0.0375  0.1078  1.0000  -5.2700   0.0000   0.0000   0.0000   0.2678
  11.000   1.2492   0.05123   0.04342  -0.0305  0.0771  1.0000  -5.2971   0.0000   0.0000   0.0000   0.2619
  11.500   1.2337   0.05925   0.05148  -0.0260  0.0612  1.0000  -5.1730   0.0000   0.0000   0.0000   0.2578
  12.000   1.2050   0.06691   0.05983  -0.0230  0.0585  1.0000  -5.0476   0.0000   0.0000   0.0000   0.2551
  12.500   1.1664   0.07701   0.07048  -0.0239  0.0579  1.0000  -4.8892   0.0000   0.0000   0.0000   0.2557
  13.000   1.1194   0.08995   0.08384  -0.0293  0.0589  1.0000  -4.6824   0.0000   0.0000   0.0000   0.2608
  13.500   1.0693   0.10647   0.10061  -0.0388  0.0609  1.0000  -4.3981   0.0000   0.0000   0.0000   0.2703
  14.000   0.9814   0.14257   0.13690  -0.0624  0.0882  1.0000  -3.4925   0.0000   0.0000   0.0000   0.2983
  14.500   0.9542   0.16126   0.15543  -0.0732  0.0903  1.0000  -3.0163   0.0000   0.0000   0.0000   0.3114
  15.000   0.9293   0.18000   0.17400  -0.0844  0.0997  1.0000  -2.5322   0.0000   0.0000   0.0000   0.3256
  15.500   0.9400   0.18789   0.18188  -0.0855  0.0807  1.0000  -2.4818   0.0000   0.0000   0.0000   0.3250
  16.000   0.9215   0.20851   0.20246  -0.0975  0.1282  1.0000  -1.9519   0.0000   0.0000   0.0000   0.3400
  16.500   0.9305   0.21906   0.21304  -0.1005  0.1233  1.0000  -1.8584   0.0000   0.0000   0.0000   0.3416
  17.000   0.9472   0.23064   0.22468  -0.1018  0.1187  1.0000  -1.8378   0.0000   0.0000   0.0000   0.3404
  17.500   0.9810   0.25708   0.25119  -0.1000  0.1139  1.0000  -1.8941   0.0000   0.0000   0.0000   0.3344
  18.000   0.9814   0.26611   0.26021  -0.1049  0.1134  1.0000  -1.8064   0.0000   0.0000   0.0000   0.3387
  18.500   0.9688   0.26994   0.26400  -0.1110  0.1122  1.0000  -1.6798   0.0000   0.0000   0.0000   0.3457
  19.000   0.9551   0.27332   0.26735  -0.1177  0.1059  1.0000  -1.5429   0.0000   0.0000   0.0000   0.3536
  19.500   0.9569   0.28307   0.27715  -0.1208  0.0991  1.0000  -1.5012   0.0000   0.0000   0.0000   0.3559
  20.000   0.9598   0.29300   0.28716  -0.1226  0.0939  1.0000  -1.4885   0.0000   0.0000   0.0000   0.3567


