xflr5 v6.61

 Calculated polar for: SD7032-099-88

 1 1 Reynolds number fixed          Mach number fixed         

 xtrf =   1.000 (top)        1.000 (bottom)
 Mach =   0.000     Re =     0.160 e 6     Ncrit =   9.000

  alpha     CL        CD       CDp       Cm    Top Xtr Bot Xtr   Cpmin    Chinge    XCp    
 ------- -------- --------- --------- -------- ------- ------- -------- --------- ---------
   0.000   0.4454   0.01124   0.00560  -0.0959  0.8241  1.0000  -0.6928   0.0000   0.0000   0.0000   0.4643
   0.500   0.4974   0.01114   0.00531  -0.0946  0.7963  1.0000  -0.7470   0.0000   0.0000   0.0000   0.4388
   1.000   0.5535   0.01111   0.00506  -0.0940  0.7715  1.0000  -0.8101   0.0000   0.0000   0.0000   0.4179
   1.500   0.6093   0.01103   0.00472  -0.0931  0.7413  1.0000  -0.8834   0.0000   0.0000   0.0000   0.4004
   2.000   0.6618   0.01117   0.00475  -0.0922  0.7090  1.0000  -0.9544   0.0000   0.0000   0.0000   0.3864
   2.500   0.7155   0.01141   0.00488  -0.0914  0.6758  1.0000  -1.0333   0.0000   0.0000   0.0000   0.3743
   3.000   0.7687   0.01171   0.00493  -0.0904  0.6392  1.0000  -1.1196   0.0000   0.0000   0.0000   0.3638
   3.500   0.8209   0.01212   0.00508  -0.0894  0.5999  1.0000  -1.2063   0.0000   0.0000   0.0000   0.3546
   4.000   0.8718   0.01252   0.00541  -0.0884  0.5634  1.0000  -1.3007   0.0000   0.0000   0.0000   0.3466
   4.500   0.9227   0.01308   0.00587  -0.0875  0.5268  1.0000  -1.4067   0.0000   0.0000   0.0000   0.3395
   5.000   0.9725   0.01373   0.00635  -0.0864  0.4886  1.0000  -1.5319   0.0000   0.0000   0.0000   0.3330
   5.500   1.0218   0.01459   0.00697  -0.0854  0.4502  1.0000  -1.6857   0.0000   0.0000   0.0000   0.3271
   6.000   1.0704   0.01513   0.00794  -0.0842  0.4187  1.0000  -1.8912   0.0000   0.0000   0.0000   0.3216
   6.500   1.1181   0.01594   0.00875  -0.0830  0.3857  1.0000  -2.0886   0.0000   0.0000   0.0000   0.3166
   7.000   1.1638   0.01694   0.00962  -0.0816  0.3505  1.0000  -2.2889   0.0000   0.0000   0.0000   0.3118
   7.500   1.2065   0.01787   0.01042  -0.0798  0.3124  1.0000  -2.6647   0.0000   0.0000   0.0000   0.3071
   8.000   1.2434   0.01855   0.01093  -0.0773  0.2574  1.0000  -3.0579   0.0000   0.0000   0.0000   0.3025
   8.500   1.2775   0.01985   0.01188  -0.0748  0.1991  1.0000  -3.4573   0.0000   0.0000   0.0000   0.2981
   9.000   1.3126   0.02128   0.01318  -0.0724  0.1623  1.0000  -3.8789   0.0000   0.0000   0.0000   0.2940
   9.500   1.3480   0.02270   0.01498  -0.0699  0.1455  1.0000  -4.2349   0.0000   0.0000   0.0000   0.2899
  10.000   1.3740   0.02445   0.01671  -0.0663  0.1181  1.0000  -4.6358   0.0000   0.0000   0.0000   0.2856
  10.500   1.3949   0.02647   0.01871  -0.0624  0.0921  1.0000  -5.0470   0.0000   0.0000   0.0000   0.2812
  11.000   1.4074   0.02920   0.02131  -0.0581  0.0603  1.0000  -5.4362   0.0000   0.0000   0.0000   0.2770
  11.500   1.4092   0.03302   0.02499  -0.0537  0.0309  1.0000  -5.7588   0.0000   0.0000   0.0000   0.2730
  12.000   1.4002   0.03809   0.03012  -0.0494  0.0136  1.0000  -5.9693   0.0000   0.0000   0.0000   0.2693
  12.500   1.3926   0.04368   0.03607  -0.0467  0.0105  1.0000  -6.1792   0.0000   0.0000   0.0000   0.2666
  13.000   1.3789   0.05053   0.04329  -0.0455  0.0092  1.0000  -6.3433   0.0000   0.0000   0.0000   0.2651
  13.500   1.3592   0.05869   0.05186  -0.0460  0.0085  1.0000  -6.4456   0.0000   0.0000   0.0000   0.2649
  14.000   1.3362   0.06849   0.06206  -0.0483  0.0081  1.0000  -6.4976   0.0000   0.0000   0.0000   0.2662
  14.500   1.3130   0.07939   0.07334  -0.0520  0.0079  1.0000  -6.5202   0.0000   0.0000   0.0000   0.2687
  15.000   1.2904   0.09075   0.08505  -0.0566  0.0078  1.0000  -6.5212   0.0000   0.0000   0.0000   0.2720
  15.500   1.2699   0.10199   0.09663  -0.0617  0.0077  1.0000  -6.5122   0.0000   0.0000   0.0000   0.2757
  16.000   1.2507   0.11320   0.10817  -0.0673  0.0076  1.0000  -6.4831   0.0000   0.0000   0.0000   0.2801
  16.500   1.2323   0.12414   0.11944  -0.0735  0.0076  1.0000  -6.4251   0.0000   0.0000   0.0000   0.2850
  17.000   1.2134   0.13655   0.13217  -0.0806  0.0077  1.0000  -6.3149   0.0000   0.0000   0.0000   0.2910
  17.500   1.1909   0.15150   0.14745  -0.0892  0.0078  1.0000  -6.1024   0.0000   0.0000   0.0000   0.2988
  18.000   1.1614   0.17048   0.16677  -0.0997  0.0081  1.0000  -5.7032   0.0000   0.0000   0.0000   0.3093
  18.500   1.0990   0.20542   0.20205  -0.1157  0.0093  1.0000  -4.4668   0.0000   0.0000   0.0000   0.3297
  19.000   1.0534   0.24100   0.23756  -0.1271  0.0110  1.0000  -3.1458   0.0000   0.0000   0.0000   0.3460
  19.500   1.0426   0.26056   0.25709  -0.1325  0.0119  1.0000  -2.7257   0.0000   0.0000   0.0000   0.3522
  20.000   1.0355   0.27687   0.27340  -0.1365  0.0129  1.0000  -2.4741   0.0000   0.0000   0.0000   0.3565


