xflr5 v6.61

 Calculated polar for: SD7032-099-88

 1 1 Reynolds number fixed          Mach number fixed         

 xtrf =   1.000 (top)        1.000 (bottom)
 Mach =   0.000     Re =     0.207 e 6     Ncrit =   9.000

  alpha     CL        CD       CDp       Cm    Top Xtr Bot Xtr   Cpmin    Chinge    XCp    
 ------- -------- --------- --------- -------- ------- ------- -------- --------- ---------
   0.000   0.4459   0.00927   0.00419  -0.0939  0.8001  1.0000  -0.6967   0.0000   0.0000   0.0000   0.4596
   0.100   0.4571   0.00924   0.00410  -0.0938  0.7951  1.0000  -0.7076   0.0000   0.0000   0.0000   0.4541
   0.200   0.4686   0.00922   0.00401  -0.0937  0.7904  1.0000  -0.7187   0.0000   0.0000   0.0000   0.4488
   0.300   0.4803   0.00921   0.00393  -0.0937  0.7858  1.0000  -0.7298   0.0000   0.0000   0.0000   0.4437
   0.400   0.4917   0.00924   0.00390  -0.0936  0.7809  1.0000  -0.7421   0.0000   0.0000   0.0000   0.4390
   0.500   0.5020   0.00926   0.00391  -0.0935  0.7758  1.0000  -0.7537   0.0000   0.0000   0.0000   0.4347
   0.600   0.5125   0.00927   0.00390  -0.0933  0.7699  1.0000  -0.7656   0.0000   0.0000   0.0000   0.4305
   0.700   0.5231   0.00928   0.00387  -0.0932  0.7638  1.0000  -0.7777   0.0000   0.0000   0.0000   0.4264
   0.800   0.5340   0.00928   0.00382  -0.0930  0.7577  1.0000  -0.7900   0.0000   0.0000   0.0000   0.4224
   0.900   0.5452   0.00927   0.00375  -0.0929  0.7517  1.0000  -0.8026   0.0000   0.0000   0.0000   0.4185
   1.000   0.5564   0.00928   0.00368  -0.0927  0.7457  1.0000  -0.8163   0.0000   0.0000   0.0000   0.4147
   1.100   0.5679   0.00932   0.00364  -0.0927  0.7392  1.0000  -0.8311   0.0000   0.0000   0.0000   0.4110
   1.200   0.5782   0.00934   0.00366  -0.0925  0.7335  1.0000  -0.8449   0.0000   0.0000   0.0000   0.4078
   1.300   0.5887   0.00937   0.00367  -0.0924  0.7271  1.0000  -0.8589   0.0000   0.0000   0.0000   0.4046
   1.400   0.5994   0.00939   0.00367  -0.0922  0.7205  1.0000  -0.8731   0.0000   0.0000   0.0000   0.4015
   1.500   0.6102   0.00942   0.00365  -0.0921  0.7140  1.0000  -0.8875   0.0000   0.0000   0.0000   0.3984
   1.600   0.6212   0.00945   0.00363  -0.0919  0.7077  1.0000  -0.9021   0.0000   0.0000   0.0000   0.3955
   1.700   0.6322   0.00950   0.00360  -0.0918  0.7014  1.0000  -0.9168   0.0000   0.0000   0.0000   0.3926
   1.800   0.6434   0.00958   0.00360  -0.0917  0.6945  1.0000  -0.9316   0.0000   0.0000   0.0000   0.3898
   1.900   0.6540   0.00962   0.00364  -0.0916  0.6891  1.0000  -0.9459   0.0000   0.0000   0.0000   0.3873
   2.000   0.6645   0.00965   0.00368  -0.0915  0.6828  1.0000  -0.9601   0.0000   0.0000   0.0000   0.3848
   2.100   0.6751   0.00969   0.00370  -0.0914  0.6756  1.0000  -0.9746   0.0000   0.0000   0.0000   0.3823
   2.200   0.6857   0.00974   0.00377  -0.0912  0.6681  1.0000  -0.9892   0.0000   0.0000   0.0000   0.3799
   2.300   0.6964   0.00979   0.00375  -0.0910  0.6606  1.0000  -1.0055   0.0000   0.0000   0.0000   0.3775
   2.400   0.7070   0.00987   0.00374  -0.0908  0.6529  1.0000  -1.0227   0.0000   0.0000   0.0000   0.3752
   2.500   0.7178   0.00997   0.00377  -0.0907  0.6451  1.0000  -1.0398   0.0000   0.0000   0.0000   0.3730
   2.600   0.7282   0.01001   0.00382  -0.0906  0.6391  1.0000  -1.0567   0.0000   0.0000   0.0000   0.3709
   2.700   0.7387   0.01005   0.00386  -0.0905  0.6321  1.0000  -1.0737   0.0000   0.0000   0.0000   0.3689
   2.800   0.7492   0.01011   0.00389  -0.0903  0.6246  1.0000  -1.0908   0.0000   0.0000   0.0000   0.3668
   2.900   0.7597   0.01018   0.00391  -0.0901  0.6168  1.0000  -1.1080   0.0000   0.0000   0.0000   0.3648
   3.000   0.7701   0.01027   0.00392  -0.0899  0.6088  1.0000  -1.1253   0.0000   0.0000   0.0000   0.3629
   3.100   0.7805   0.01041   0.00396  -0.0897  0.5999  1.0000  -1.1425   0.0000   0.0000   0.0000   0.3610
   3.200   0.7910   0.01047   0.00402  -0.0896  0.5936  1.0000  -1.1597   0.0000   0.0000   0.0000   0.3592
   3.300   0.8015   0.01052   0.00408  -0.0895  0.5868  1.0000  -1.1770   0.0000   0.0000   0.0000   0.3575
   3.400   0.8119   0.01058   0.00413  -0.0893  0.5792  1.0000  -1.1943   0.0000   0.0000   0.0000   0.3558
   3.500   0.8222   0.01067   0.00418  -0.0892  0.5717  1.0000  -1.2117   0.0000   0.0000   0.0000   0.3541
   3.600   0.8325   0.01077   0.00422  -0.0890  0.5642  1.0000  -1.2291   0.0000   0.0000   0.0000   0.3524
   3.700   0.8427   0.01090   0.00427  -0.0888  0.5563  1.0000  -1.2464   0.0000   0.0000   0.0000   0.3508
   3.800   0.8531   0.01105   0.00436  -0.0887  0.5482  1.0000  -1.2661   0.0000   0.0000   0.0000   0.3493
   3.900   0.8636   0.01110   0.00444  -0.0886  0.5430  1.0000  -1.2867   0.0000   0.0000   0.0000   0.3478
   4.000   0.8740   0.01117   0.00451  -0.0884  0.5363  1.0000  -1.3074   0.0000   0.0000   0.0000   0.3463
   4.100   0.8842   0.01125   0.00458  -0.0883  0.5287  1.0000  -1.3281   0.0000   0.0000   0.0000   0.3449
   4.200   0.8943   0.01135   0.00464  -0.0881  0.5207  1.0000  -1.3487   0.0000   0.0000   0.0000   0.3434
   4.300   0.9042   0.01148   0.00470  -0.0878  0.5124  1.0000  -1.3693   0.0000   0.0000   0.0000   0.3420
   4.400   0.9139   0.01167   0.00478  -0.0876  0.5030  1.0000  -1.3897   0.0000   0.0000   0.0000   0.3406
   4.500   0.9243   0.01177   0.00488  -0.0875  0.4964  1.0000  -1.4141   0.0000   0.0000   0.0000   0.3393
   4.600   0.9346   0.01183   0.00497  -0.0874  0.4904  1.0000  -1.4394   0.0000   0.0000   0.0000   0.3380
   4.700   0.9448   0.01192   0.00506  -0.0872  0.4835  1.0000  -1.4647   0.0000   0.0000   0.0000   0.3367
   4.800   0.9549   0.01202   0.00515  -0.0870  0.4764  1.0000  -1.4900   0.0000   0.0000   0.0000   0.3354
   4.900   0.9648   0.01216   0.00524  -0.0868  0.4690  1.0000  -1.5151   0.0000   0.0000   0.0000   0.3342
   5.000   0.9744   0.01232   0.00534  -0.0866  0.4613  1.0000  -1.5407   0.0000   0.0000   0.0000   0.3329
   5.100   0.9841   0.01255   0.00547  -0.0864  0.4523  1.0000  -1.5708   0.0000   0.0000   0.0000   0.3317
   5.200   0.9945   0.01264   0.00559  -0.0863  0.4471  1.0000  -1.6021   0.0000   0.0000   0.0000   0.3306
   5.300   1.0047   0.01271   0.00571  -0.0861  0.4418  1.0000  -1.6336   0.0000   0.0000   0.0000   0.3295
   5.400   1.0148   0.01281   0.00582  -0.0860  0.4353  1.0000  -1.6651   0.0000   0.0000   0.0000   0.3283
   5.500   1.0247   0.01293   0.00592  -0.0858  0.4281  1.0000  -1.6988   0.0000   0.0000   0.0000   0.3272
   5.600   1.0342   0.01308   0.00602  -0.0855  0.4206  1.0000  -1.7384   0.0000   0.0000   0.0000   0.3261
   5.700   1.0433   0.01327   0.00614  -0.0852  0.4123  1.0000  -1.7774   0.0000   0.0000   0.0000   0.3249
   5.800   1.0527   0.01355   0.00632  -0.0850  0.4021  1.0000  -1.8167   0.0000   0.0000   0.0000   0.3239
   5.900   1.0630   0.01359   0.00672  -0.0848  0.3986  1.0000  -1.8646   0.0000   0.0000   0.0000   0.3228
   6.000   1.0732   0.01366   0.00685  -0.0847  0.3938  1.0000  -1.9047   0.0000   0.0000   0.0000   0.3218
   6.100   1.0832   0.01376   0.00697  -0.0845  0.3881  1.0000  -1.9448   0.0000   0.0000   0.0000   0.3208
   6.200   1.0929   0.01388   0.00710  -0.0843  0.3818  1.0000  -1.9849   0.0000   0.0000   0.0000   0.3198
   6.300   1.1023   0.01403   0.00722  -0.0841  0.3751  1.0000  -2.0247   0.0000   0.0000   0.0000   0.3188
   6.400   1.1113   0.01423   0.00736  -0.0838  0.3679  1.0000  -2.0639   0.0000   0.0000   0.0000   0.3178
   6.500   1.1201   0.01449   0.00754  -0.0835  0.3591  1.0000  -2.1027   0.0000   0.0000   0.0000   0.3168
   6.600   1.1298   0.01465   0.00771  -0.0833  0.3529  1.0000  -2.1436   0.0000   0.0000   0.0000   0.3159
   6.700   1.1397   0.01473   0.00784  -0.0831  0.3481  1.0000  -2.1854   0.0000   0.0000   0.0000   0.3150
   6.800   1.1494   0.01482   0.00796  -0.0829  0.3418  1.0000  -2.2270   0.0000   0.0000   0.0000   0.3140
   6.900   1.1583   0.01495   0.00805  -0.0826  0.3329  1.0000  -2.2679   0.0000   0.0000   0.0000   0.3131
   7.000   1.1660   0.01515   0.00816  -0.0821  0.3219  1.0000  -2.3067   0.0000   0.0000   0.0000   0.3121
   7.100   1.1733   0.01545   0.00832  -0.0816  0.3086  1.0000  -2.3634   0.0000   0.0000   0.0000   0.3111
   7.200   1.1827   0.01547   0.00838  -0.0814  0.2989  1.0000  -2.4445   0.0000   0.0000   0.0000   0.3102
   7.300   1.1905   0.01565   0.00847  -0.0810  0.2848  1.0000  -2.5204   0.0000   0.0000   0.0000   0.3092
   7.400   1.1964   0.01598   0.00864  -0.0803  0.2688  1.0000  -2.5892   0.0000   0.0000   0.0000   0.3082
   7.500   1.2052   0.01613   0.00876  -0.0801  0.2564  1.0000  -2.6704   0.0000   0.0000   0.0000   0.3074
   7.600   1.2126   0.01638   0.00891  -0.0796  0.2413  1.0000  -2.7466   0.0000   0.0000   0.0000   0.3065
   7.700   1.2186   0.01675   0.00912  -0.0790  0.2262  1.0000  -2.8174   0.0000   0.0000   0.0000   0.3055
   7.800   1.2275   0.01693   0.00929  -0.0788  0.2168  1.0000  -2.9011   0.0000   0.0000   0.0000   0.3047
   7.900   1.2359   0.01714   0.00947  -0.0785  0.2080  1.0000  -2.9833   0.0000   0.0000   0.0000   0.3039
   8.000   1.2438   0.01739   0.00968  -0.0781  0.2001  1.0000  -3.0640   0.0000   0.0000   0.0000   0.3030
   8.100   1.2508   0.01769   0.00991  -0.0776  0.1916  1.0000  -3.1422   0.0000   0.0000   0.0000   0.3021
   8.200   1.2588   0.01794   0.01013  -0.0772  0.1844  1.0000  -3.2252   0.0000   0.0000   0.0000   0.3013
   8.300   1.2674   0.01814   0.01033  -0.0769  0.1776  1.0000  -3.3122   0.0000   0.0000   0.0000   0.3005
   8.400   1.2752   0.01839   0.01054  -0.0766  0.1694  1.0000  -3.3971   0.0000   0.0000   0.0000   0.2997
   8.500   1.2821   0.01870   0.01079  -0.0761  0.1607  1.0000  -3.4787   0.0000   0.0000   0.0000   0.2989
   8.600   1.2885   0.01905   0.01107  -0.0755  0.1521  1.0000  -3.5586   0.0000   0.0000   0.0000   0.2980
   8.700   1.2967   0.01927   0.01129  -0.0752  0.1466  1.0000  -3.6482   0.0000   0.0000   0.0000   0.2972
   8.800   1.3045   0.01951   0.01153  -0.0748  0.1401  1.0000  -3.7371   0.0000   0.0000   0.0000   0.2964
   8.900   1.3117   0.01980   0.01179  -0.0743  0.1329  1.0000  -3.8241   0.0000   0.0000   0.0000   0.2956
   9.000   1.3180   0.02015   0.01208  -0.0738  0.1254  1.0000  -3.9083   0.0000   0.0000   0.0000   0.2948
   9.100   1.3244   0.02049   0.01237  -0.0732  0.1187  1.0000  -3.9938   0.0000   0.0000   0.0000   0.2939
   9.200   1.3319   0.02074   0.01263  -0.0728  0.1134  1.0000  -4.0861   0.0000   0.0000   0.0000   0.2932
   9.300   1.3387   0.02104   0.01292  -0.0723  0.1067  1.0000  -4.1761   0.0000   0.0000   0.0000   0.2924
   9.400   1.3488   0.02108   0.01337  -0.0721  0.1196  1.0000  -4.1951   0.0000   0.0000   0.0000   0.2916
   9.500   1.3563   0.02131   0.01365  -0.0716  0.1165  1.0000  -4.2796   0.0000   0.0000   0.0000   0.2908
   9.600   1.3633   0.02158   0.01394  -0.0711  0.1118  1.0000  -4.3675   0.0000   0.0000   0.0000   0.2901
   9.700   1.3695   0.02190   0.01425  -0.0705  0.1060  1.0000  -4.4545   0.0000   0.0000   0.0000   0.2892
   9.800   1.3744   0.02227   0.01458  -0.0698  0.0998  1.0000  -4.5366   0.0000   0.0000   0.0000   0.2884
   9.900   1.3783   0.02268   0.01494  -0.0689  0.0935  1.0000  -4.6155   0.0000   0.0000   0.0000   0.2874
  10.000   1.3835   0.02302   0.01528  -0.0682  0.0886  1.0000  -4.7026   0.0000   0.0000   0.0000   0.2865
  10.100   1.3889   0.02334   0.01561  -0.0675  0.0840  1.0000  -4.7924   0.0000   0.0000   0.0000   0.2857
  10.200   1.3935   0.02372   0.01598  -0.0667  0.0789  1.0000  -4.8796   0.0000   0.0000   0.0000   0.2848
  10.300   1.3970   0.02418   0.01640  -0.0658  0.0733  1.0000  -4.9616   0.0000   0.0000   0.0000   0.2839
  10.400   1.3990   0.02474   0.01689  -0.0648  0.0660  1.0000  -5.0364   0.0000   0.0000   0.0000   0.2830
  10.500   1.4022   0.02521   0.01734  -0.0639  0.0590  1.0000  -5.1198   0.0000   0.0000   0.0000   0.2821
  10.600   1.4027   0.02589   0.01792  -0.0628  0.0504  1.0000  -5.1880   0.0000   0.0000   0.0000   0.2811
  10.700   1.4039   0.02654   0.01851  -0.0618  0.0430  1.0000  -5.2603   0.0000   0.0000   0.0000   0.2802
  10.800   1.4065   0.02709   0.01905  -0.0609  0.0376  1.0000  -5.3414   0.0000   0.0000   0.0000   0.2793
  10.900   1.4070   0.02779   0.01970  -0.0599  0.0316  1.0000  -5.4100   0.0000   0.0000   0.0000   0.2784
  11.000   1.4075   0.02850   0.02039  -0.0589  0.0260  1.0000  -5.4780   0.0000   0.0000   0.0000   0.2775
  11.100   1.4074   0.02926   0.02113  -0.0578  0.0195  1.0000  -5.5421   0.0000   0.0000   0.0000   0.2766
  11.200   1.4056   0.03017   0.02198  -0.0567  0.0147  1.0000  -5.5951   0.0000   0.0000   0.0000   0.2757
  11.300   1.4066   0.03089   0.02273  -0.0558  0.0127  1.0000  -5.6641   0.0000   0.0000   0.0000   0.2749
  11.400   1.4075   0.03163   0.02350  -0.0550  0.0112  1.0000  -5.7317   0.0000   0.0000   0.0000   0.2741
  11.500   1.4078   0.03243   0.02432  -0.0541  0.0101  1.0000  -5.7950   0.0000   0.0000   0.0000   0.2733
  11.600   1.4080   0.03325   0.02517  -0.0533  0.0091  1.0000  -5.8559   0.0000   0.0000   0.0000   0.2725
  11.700   1.4081   0.03409   0.02606  -0.0524  0.0083  1.0000  -5.9124   0.0000   0.0000   0.0000   0.2718
  11.800   1.4078   0.03497   0.02701  -0.0516  0.0077  1.0000  -5.9635   0.0000   0.0000   0.0000   0.2710
  11.900   1.4070   0.03591   0.02804  -0.0508  0.0072  1.0000  -6.0092   0.0000   0.0000   0.0000   0.2703
  12.000   1.4059   0.03692   0.02915  -0.0501  0.0069  1.0000  -6.0505   0.0000   0.0000   0.0000   0.2696
  12.100   1.4043   0.03800   0.03034  -0.0494  0.0066  1.0000  -6.0885   0.0000   0.0000   0.0000   0.2690
  12.200   1.4020   0.03916   0.03161  -0.0488  0.0064  1.0000  -6.1211   0.0000   0.0000   0.0000   0.2684
  12.300   1.3994   0.04039   0.03294  -0.0482  0.0063  1.0000  -6.1510   0.0000   0.0000   0.0000   0.2678
  12.400   1.3965   0.04169   0.03435  -0.0477  0.0062  1.0000  -6.1777   0.0000   0.0000   0.0000   0.2674
  12.500   1.3928   0.04309   0.03585  -0.0472  0.0061  1.0000  -6.1990   0.0000   0.0000   0.0000   0.2670
  12.600   1.3890   0.04453   0.03735  -0.0469  0.0060  1.0000  -6.2204   0.0000   0.0000   0.0000   0.2666
  12.700   1.3869   0.04583   0.03873  -0.0466  0.0060  1.0000  -6.2614   0.0000   0.0000   0.0000   0.2663
  12.800   1.3842   0.04721   0.04020  -0.0465  0.0059  1.0000  -6.2969   0.0000   0.0000   0.0000   0.2660
  12.900   1.3811   0.04866   0.04173  -0.0464  0.0059  1.0000  -6.3294   0.0000   0.0000   0.0000   0.2658
  13.000   1.3782   0.05012   0.04327  -0.0463  0.0059  1.0000  -6.3618   0.0000   0.0000   0.0000   0.2656
  13.100   1.3751   0.05164   0.04487  -0.0463  0.0059  1.0000  -6.3917   0.0000   0.0000   0.0000   0.2655
  13.200   1.3713   0.05325   0.04657  -0.0464  0.0058  1.0000  -6.4155   0.0000   0.0000   0.0000   0.2655
  13.300   1.3675   0.05486   0.04825  -0.0464  0.0058  1.0000  -6.4385   0.0000   0.0000   0.0000   0.2654
  13.400   1.3638   0.05648   0.04995  -0.0465  0.0058  1.0000  -6.4612   0.0000   0.0000   0.0000   0.2654
  13.500   1.3595   0.05825   0.05179  -0.0468  0.0058  1.0000  -6.4785   0.0000   0.0000   0.0000   0.2655
  13.600   1.3552   0.06007   0.05370  -0.0471  0.0058  1.0000  -6.4945   0.0000   0.0000   0.0000   0.2656
  13.700   1.3512   0.06190   0.05560  -0.0474  0.0058  1.0000  -6.5119   0.0000   0.0000   0.0000   0.2658
  13.800   1.3473   0.06377   0.05754  -0.0478  0.0058  1.0000  -6.5285   0.0000   0.0000   0.0000   0.2659
  13.900   1.3428   0.06579   0.05964  -0.0483  0.0058  1.0000  -6.5392   0.0000   0.0000   0.0000   0.2663
  14.000   1.3386   0.06779   0.06171  -0.0489  0.0057  1.0000  -6.5516   0.0000   0.0000   0.0000   0.2666
  14.100   1.3347   0.06976   0.06376  -0.0494  0.0057  1.0000  -6.5651   0.0000   0.0000   0.0000   0.2669
  14.200   1.3308   0.07177   0.06584  -0.0499  0.0057  1.0000  -6.5776   0.0000   0.0000   0.0000   0.2672
  14.300   1.3263   0.07394   0.06808  -0.0507  0.0057  1.0000  -6.5837   0.0000   0.0000   0.0000   0.2676
  14.400   1.3222   0.07607   0.07028  -0.0514  0.0057  1.0000  -6.5914   0.0000   0.0000   0.0000   0.2681
  14.500   1.3183   0.07815   0.07244  -0.0520  0.0057  1.0000  -6.6004   0.0000   0.0000   0.0000   0.2685
  14.600   1.3145   0.08023   0.07458  -0.0527  0.0057  1.0000  -6.6092   0.0000   0.0000   0.0000   0.2689
  14.700   1.3103   0.08240   0.07682  -0.0535  0.0057  1.0000  -6.6138   0.0000   0.0000   0.0000   0.2695
  14.800   1.3059   0.08466   0.07916  -0.0543  0.0057  1.0000  -6.6143   0.0000   0.0000   0.0000   0.2701
  14.900   1.3018   0.08685   0.08142  -0.0552  0.0057  1.0000  -6.6171   0.0000   0.0000   0.0000   0.2706
  15.000   1.2980   0.08900   0.08363  -0.0560  0.0057  1.0000  -6.6205   0.0000   0.0000   0.0000   0.2712
  15.100   1.2941   0.09114   0.08584  -0.0568  0.0057  1.0000  -6.6228   0.0000   0.0000   0.0000   0.2718
  15.200   1.2900   0.09336   0.08814  -0.0577  0.0057  1.0000  -6.6214   0.0000   0.0000   0.0000   0.2724
  15.300   1.2855   0.09570   0.09055  -0.0588  0.0057  1.0000  -6.6149   0.0000   0.0000   0.0000   0.2732
  15.400   1.2813   0.09795   0.09287  -0.0597  0.0057  1.0000  -6.6101   0.0000   0.0000   0.0000   0.2739
  15.500   1.2774   0.10015   0.09514  -0.0607  0.0057  1.0000  -6.6062   0.0000   0.0000   0.0000   0.2747
  15.600   1.2736   0.10234   0.09740  -0.0617  0.0057  1.0000  -6.6016   0.0000   0.0000   0.0000   0.2754
  15.700   1.2697   0.10455   0.09968  -0.0627  0.0057  1.0000  -6.5949   0.0000   0.0000   0.0000   0.2761
  15.800   1.2651   0.10692   0.10213  -0.0639  0.0057  1.0000  -6.5803   0.0000   0.0000   0.0000   0.2771
  15.900   1.2606   0.10934   0.10461  -0.0652  0.0057  1.0000  -6.5640   0.0000   0.0000   0.0000   0.2781
  16.000   1.2562   0.11168   0.10703  -0.0664  0.0057  1.0000  -6.5480   0.0000   0.0000   0.0000   0.2791
  16.100   1.2519   0.11393   0.10934  -0.0676  0.0058  1.0000  -6.5307   0.0000   0.0000   0.0000   0.2801
  16.200   1.2474   0.11617   0.11166  -0.0689  0.0058  1.0000  -6.5104   0.0000   0.0000   0.0000   0.2811
  16.300   1.2427   0.11856   0.11411  -0.0703  0.0058  1.0000  -6.4856   0.0000   0.0000   0.0000   0.2823
  16.400   1.2375   0.12118   0.11680  -0.0719  0.0058  1.0000  -6.4523   0.0000   0.0000   0.0000   0.2837
  16.500   1.2325   0.12376   0.11945  -0.0735  0.0058  1.0000  -6.4202   0.0000   0.0000   0.0000   0.2850
  16.600   1.2277   0.12635   0.12212  -0.0751  0.0058  1.0000  -6.3878   0.0000   0.0000   0.0000   0.2863
  16.700   1.2229   0.12903   0.12486  -0.0766  0.0058  1.0000  -6.3530   0.0000   0.0000   0.0000   0.2877
  16.800   1.2178   0.13185   0.12776  -0.0784  0.0058  1.0000  -6.3125   0.0000   0.0000   0.0000   0.2892
  16.900   1.2120   0.13496   0.13094  -0.0803  0.0058  1.0000  -6.2616   0.0000   0.0000   0.0000   0.2910
  17.000   1.2066   0.13804   0.13408  -0.0821  0.0058  1.0000  -6.2122   0.0000   0.0000   0.0000   0.2927
  17.100   1.2014   0.14114   0.13725  -0.0840  0.0059  1.0000  -6.1615   0.0000   0.0000   0.0000   0.2944
  17.200   1.1960   0.14434   0.14051  -0.0859  0.0059  1.0000  -6.1065   0.0000   0.0000   0.0000   0.2962
  17.300   1.1899   0.14783   0.14406  -0.0880  0.0059  1.0000  -6.0403   0.0000   0.0000   0.0000   0.2982
  17.400   1.1838   0.15149   0.14779  -0.0901  0.0059  1.0000  -5.9685   0.0000   0.0000   0.0000   0.3003
  17.500   1.1778   0.15511   0.15147  -0.0922  0.0059  1.0000  -5.8964   0.0000   0.0000   0.0000   0.3023
  17.600   1.1718   0.15883   0.15525  -0.0943  0.0059  1.0000  -5.8192   0.0000   0.0000   0.0000   0.3045
  17.700   1.1652   0.16289   0.15937  -0.0966  0.0059  1.0000  -5.7287   0.0000   0.0000   0.0000   0.3068
  17.800   1.1581   0.16721   0.16375  -0.0990  0.0060  1.0000  -5.6272   0.0000   0.0000   0.0000   0.3094
  17.900   1.1513   0.17152   0.16811  -0.1013  0.0060  1.0000  -5.5233   0.0000   0.0000   0.0000   0.3118
  18.000   1.1469   0.17516   0.17185  -0.1033  0.0060  1.0000  -5.4624   0.0000   0.0000   0.0000   0.3138
  18.100   1.1426   0.17893   0.17566  -0.1052  0.0060  1.0000  -5.4015   0.0000   0.0000   0.0000   0.3158
  18.200   1.1383   0.18278   0.17955  -0.1072  0.0061  1.0000  -5.3364   0.0000   0.0000   0.0000   0.3178
  18.300   1.1343   0.18654   0.18334  -0.1091  0.0061  1.0000  -5.2735   0.0000   0.0000   0.0000   0.3197
  18.400   1.1304   0.19035   0.18718  -0.1109  0.0062  1.0000  -5.2083   0.0000   0.0000   0.0000   0.3216
  18.500   1.1262   0.19435   0.19121  -0.1128  0.0062  1.0000  -5.1347   0.0000   0.0000   0.0000   0.3236
  18.600   1.1216   0.19861   0.19550  -0.1147  0.0062  1.0000  -5.0493   0.0000   0.0000   0.0000   0.3257
  18.700   1.1174   0.20276   0.19968  -0.1166  0.0063  1.0000  -4.9663   0.0000   0.0000   0.0000   0.3277
  18.800   1.1133   0.20698   0.20392  -0.1183  0.0064  1.0000  -4.8792   0.0000   0.0000   0.0000   0.3297
  18.900   1.1089   0.21143   0.20839  -0.1202  0.0064  1.0000  -4.7801   0.0000   0.0000   0.0000   0.3317
  19.000   1.1040   0.21613   0.21312  -0.1220  0.0065  1.0000  -4.6664   0.0000   0.0000   0.0000   0.3339
  19.100   1.0995   0.22077   0.21777  -0.1238  0.0066  1.0000  -4.5526   0.0000   0.0000   0.0000   0.3359
  19.200   1.0950   0.22556   0.22258  -0.1255  0.0067  1.0000  -4.4272   0.0000   0.0000   0.0000   0.3380
  19.300   1.0895   0.23091   0.22794  -0.1272  0.0069  1.0000  -4.2674   0.0000   0.0000   0.0000   0.3403
  19.400   1.0834   0.23670   0.23374  -0.1290  0.0071  1.0000  -4.0746   0.0000   0.0000   0.0000   0.3427
  19.500   1.0641   0.25043   0.24744  -0.1321  0.0079  1.0000  -3.3880   0.0000   0.0000   0.0000   0.3485
  19.600   1.0552   0.25843   0.25541  -0.1339  0.0085  1.0000  -3.0530   0.0000   0.0000   0.0000   0.3515
  19.700   1.0494   0.26462   0.26159  -0.1353  0.0090  1.0000  -2.8332   0.0000   0.0000   0.0000   0.3537
  19.800   1.0457   0.26946   0.26642  -0.1364  0.0095  1.0000  -2.6917   0.0000   0.0000   0.0000   0.3553
  19.900   1.0429   0.27365   0.27061  -0.1374  0.0099  1.0000  -2.5868   0.0000   0.0000   0.0000   0.3565
  20.000   1.0405   0.27746   0.27442  -0.1383  0.0102  1.0000  -2.5026   0.0000   0.0000   0.0000   0.3576
  20.100   1.0384   0.28100   0.27796  -0.1390  0.0106  1.0000  -2.4325   0.0000   0.0000   0.0000   0.3585
  20.200   1.0364   0.28433   0.28128  -0.1397  0.0110  1.0000  -2.3728   0.0000   0.0000   0.0000   0.3594
  20.300   1.0344   0.28747   0.28443  -0.1404  0.0114  1.0000  -2.3213   0.0000   0.0000   0.0000   0.3602
  20.400   1.0324   0.29045   0.28741  -0.1409  0.0119  1.0000  -2.2770   0.0000   0.0000   0.0000   0.3609
  20.500   1.0302   0.29327   0.29024  -0.1414  0.0123  1.0000  -2.2389   0.0000   0.0000   0.0000   0.3615
  20.600   1.0277   0.29594   0.29292  -0.1418  0.0128  1.0000  -2.2053   0.0000   0.0000   0.0000   0.3621
  20.700   1.0245   0.29852   0.29550  -0.1421  0.0133  1.0000  -2.1733   0.0000   0.0000   0.0000   0.3627
  20.900   0.9720   0.30310   0.30021  -0.1394  0.0232  1.0000  -1.6194   0.0000   0.0000   0.0000   0.3685
  21.000   0.9549   0.30122   0.29836  -0.1377  0.0245  1.0000  -1.5658   0.0000   0.0000   0.0000   0.3694
  21.100   0.9425   0.29984   0.29703  -0.1346  0.0273  1.0000  -1.5824   0.0000   0.0000   0.0000   0.3679
  21.200   0.9366   0.30001   0.29723  -0.1345  0.0272  1.0000  -1.5551   0.0000   0.0000   0.0000   0.3687
  21.300   0.9315   0.30031   0.29754  -0.1345  0.0271  1.0000  -1.5300   0.0000   0.0000   0.0000   0.3695
  21.400   0.9267   0.30067   0.29791  -0.1347  0.0270  1.0000  -1.5017   0.0000   0.0000   0.0000   0.3704
  21.500   0.9219   0.30111   0.29837  -0.1351  0.0267  1.0000  -1.4673   0.0000   0.0000   0.0000   0.3716
  21.600   0.9179   0.30182   0.29909  -0.1359  0.0261  1.0000  -1.4261   0.0000   0.0000   0.0000   0.3730
  21.700   0.9145   0.30263   0.29990  -0.1365  0.0255  1.0000  -1.3915   0.0000   0.0000   0.0000   0.3742
  21.800   0.9113   0.30336   0.30064  -0.1368  0.0251  1.0000  -1.3652   0.0000   0.0000   0.0000   0.3750
  21.900   0.9082   0.30404   0.30134  -0.1371  0.0247  1.0000  -1.3427   0.0000   0.0000   0.0000   0.3758
  22.000   0.9054   0.30472   0.30202  -0.1374  0.0243  1.0000  -1.3228   0.0000   0.0000   0.0000   0.3764
  22.100   0.9028   0.30539   0.30270  -0.1376  0.0240  1.0000  -1.3048   0.0000   0.0000   0.0000   0.3771
  22.200   0.9003   0.30605   0.30338  -0.1379  0.0236  1.0000  -1.2885   0.0000   0.0000   0.0000   0.3777
  22.300   0.8980   0.30672   0.30405  -0.1381  0.0233  1.0000  -1.2736   0.0000   0.0000   0.0000   0.3782
  22.400   0.8959   0.30738   0.30473  -0.1383  0.0229  1.0000  -1.2598   0.0000   0.0000   0.0000   0.3788
  22.500   0.8939   0.30804   0.30540  -0.1386  0.0226  1.0000  -1.2472   0.0000   0.0000   0.0000   0.3793
  22.600   0.8920   0.30870   0.30607  -0.1388  0.0223  1.0000  -1.2356   0.0000   0.0000   0.0000   0.3798
  22.700   0.8902   0.30937   0.30675  -0.1391  0.0220  1.0000  -1.2249   0.0000   0.0000   0.0000   0.3803
  22.800   0.8885   0.31003   0.30742  -0.1393  0.0217  1.0000  -1.2149   0.0000   0.0000   0.0000   0.3808
  22.900   0.8870   0.31069   0.30809  -0.1396  0.0214  1.0000  -1.2058   0.0000   0.0000   0.0000   0.3812
  23.000   0.8855   0.31136   0.30876  -0.1399  0.0211  1.0000  -1.1973   0.0000   0.0000   0.0000   0.3816
  23.100   0.8841   0.31202   0.30944  -0.1401  0.0208  1.0000  -1.1896   0.0000   0.0000   0.0000   0.3821
  23.200   0.8828   0.31268   0.31011  -0.1404  0.0206  1.0000  -1.1825   0.0000   0.0000   0.0000   0.3825
  23.300   0.8815   0.31334   0.31078  -0.1407  0.0203  1.0000  -1.1759   0.0000   0.0000   0.0000   0.3829
  23.400   0.8804   0.31401   0.31145  -0.1409  0.0201  1.0000  -1.1700   0.0000   0.0000   0.0000   0.3833
  23.500   0.8792   0.31467   0.31212  -0.1412  0.0198  1.0000  -1.1646   0.0000   0.0000   0.0000   0.3836
  23.600   0.8782   0.31532   0.31279  -0.1415  0.0196  1.0000  -1.1598   0.0000   0.0000   0.0000   0.3840
  23.700   0.8772   0.31598   0.31345  -0.1418  0.0193  1.0000  -1.1556   0.0000   0.0000   0.0000   0.3844
  23.800   0.8763   0.31663   0.31411  -0.1420  0.0191  1.0000  -1.1520   0.0000   0.0000   0.0000   0.3847
  23.900   0.8754   0.31728   0.31477  -0.1423  0.0189  1.0000  -1.1489   0.0000   0.0000   0.0000   0.3850
  24.000   0.8746   0.31793   0.31543  -0.1426  0.0187  1.0000  -1.1463   0.0000   0.0000   0.0000   0.3854
  24.100   0.8738   0.31857   0.31608  -0.1429  0.0185  1.0000  -1.1444   0.0000   0.0000   0.0000   0.3857
  24.200   0.8731   0.31921   0.31673  -0.1431  0.0183  1.0000  -1.1431   0.0000   0.0000   0.0000   0.3860
  24.300   0.8724   0.31985   0.31737  -0.1434  0.0181  1.0000  -1.1424   0.0000   0.0000   0.0000   0.3862
  24.400   0.8717   0.32047   0.31800  -0.1437  0.0179  1.0000  -1.1423   0.0000   0.0000   0.0000   0.3865
  24.500   0.8711   0.32109   0.31863  -0.1439  0.0177  1.0000  -1.1429   0.0000   0.0000   0.0000   0.3868
  24.600   0.8706   0.32171   0.31925  -0.1442  0.0175  1.0000  -1.1443   0.0000   0.0000   0.0000   0.3870
  24.700   0.8700   0.32231   0.31987  -0.1445  0.0174  1.0000  -1.1464   0.0000   0.0000   0.0000   0.3872
  24.800   0.8695   0.32291   0.32047  -0.1447  0.0172  1.0000  -1.1493   0.0000   0.0000   0.0000   0.3875
  24.900   0.8691   0.32349   0.32107  -0.1450  0.0170  1.0000  -1.1531   0.0000   0.0000   0.0000   0.3876
  25.000   0.8687   0.32407   0.32165  -0.1452  0.0169  1.0000  -1.1578   0.0000   0.0000   0.0000   0.3878
  25.100   0.8683   0.32463   0.32222  -0.1454  0.0167  1.0000  -1.1636   0.0000   0.0000   0.0000   0.3879
  25.200   0.8680   0.32519   0.32279  -0.1456  0.0165  1.0000  -1.1705   0.0000   0.0000   0.0000   0.3880
  25.300   0.8677   0.32574   0.32335  -0.1458  0.0164  1.0000  -1.1785   0.0000   0.0000   0.0000   0.3881
  25.400   0.8674   0.32628   0.32390  -0.1459  0.0162  1.0000  -1.1877   0.0000   0.0000   0.0000   0.3881
  25.500   0.8672   0.32684   0.32447  -0.1461  0.0161  1.0000  -1.1982   0.0000   0.0000   0.0000   0.3881
  25.600   0.8671   0.32742   0.32506  -0.1461  0.0159  1.0000  -1.2100   0.0000   0.0000   0.0000   0.3880
  25.700   0.8670   0.32807   0.32572  -0.1461  0.0158  1.0000  -1.2230   0.0000   0.0000   0.0000   0.3879
  25.800   0.8671   0.32888   0.32654  -0.1461  0.0156  1.0000  -1.2369   0.0000   0.0000   0.0000   0.3876
  25.900   0.8657   0.33059   0.32826  -0.1458  0.0152  1.0000  -1.2244   0.0000   0.0000   0.0000   0.3874
  26.000   0.8619   0.33321   0.33085  -0.1458  0.0149  1.0000  -1.1508   0.0000   0.0000   0.0000   0.3883
  26.100   0.8614   0.33400   0.33165  -0.1462  0.0149  1.0000  -1.1426   0.0000   0.0000   0.0000   0.3886
  26.200   0.8609   0.33478   0.33244  -0.1466  0.0149  1.0000  -1.1345   0.0000   0.0000   0.0000   0.3890
  26.300   0.8605   0.33557   0.33323  -0.1470  0.0149  1.0000  -1.1266   0.0000   0.0000   0.0000   0.3894
  26.400   0.8600   0.33634   0.33401  -0.1473  0.0149  1.0000  -1.1187   0.0000   0.0000   0.0000   0.3897
  26.500   0.8596   0.33712   0.33480  -0.1477  0.0149  1.0000  -1.1110   0.0000   0.0000   0.0000   0.3901
  26.600   0.8592   0.33789   0.33557  -0.1481  0.0149  1.0000  -1.1033   0.0000   0.0000   0.0000   0.3905
  26.700   0.8587   0.33865   0.33634  -0.1485  0.0149  1.0000  -1.0955   0.0000   0.0000   0.0000   0.3908
  26.800   0.8583   0.33940   0.33710  -0.1489  0.0149  1.0000  -1.0878   0.0000   0.0000   0.0000   0.3912
  26.900   0.8579   0.34015   0.33785  -0.1493  0.0149  1.0000  -1.0802   0.0000   0.0000   0.0000   0.3916
  27.000   0.8575   0.34089   0.33860  -0.1497  0.0149  1.0000  -1.0727   0.0000   0.0000   0.0000   0.3919
  27.100   0.8571   0.34164   0.33935  -0.1501  0.0148  1.0000  -1.0652   0.0000   0.0000   0.0000   0.3923
  27.200   0.8567   0.34238   0.34010  -0.1505  0.0148  1.0000  -1.0579   0.0000   0.0000   0.0000   0.3927
  27.300   0.8564   0.34314   0.34092  -0.1509  0.0148  1.0000  -1.0514   0.0000   0.0000   0.0000   0.3930
  27.400   0.8560   0.34388   0.34167  -0.1513  0.0148  1.0000  -1.0445   0.0000   0.0000   0.0000   0.3934
  27.500   0.8557   0.34461   0.34241  -0.1517  0.0148  1.0000  -1.0376   0.0000   0.0000   0.0000   0.3937
  27.600   0.8553   0.34533   0.34314  -0.1522  0.0148  1.0000  -1.0304   0.0000   0.0000   0.0000   0.3941
  27.700   0.8549   0.34605   0.34386  -0.1526  0.0148  1.0000  -1.0231   0.0000   0.0000   0.0000   0.3945
  27.800   0.8546   0.34676   0.34458  -0.1530  0.0147  1.0000  -1.0159   0.0000   0.0000   0.0000   0.3949
  27.900   0.8542   0.34747   0.34529  -0.1534  0.0147  1.0000  -1.0088   0.0000   0.0000   0.0000   0.3953
  28.000   0.8539   0.34818   0.34601  -0.1539  0.0147  1.0000  -1.0018   0.0000   0.0000   0.0000   0.3956
  28.100   0.8535   0.34887   0.34671  -0.1543  0.0147  1.0000  -0.9931   0.0000   0.0000   0.0000   0.3961
  28.200   0.8530   0.34956   0.34740  -0.1548  0.0146  1.0000  -0.9843   0.0000   0.0000   0.0000   0.3965
  28.300   0.8527   0.35025   0.34810  -0.1553  0.0146  1.0000  -0.9755   0.0000   0.0000   0.0000   0.3970
  28.400   0.8523   0.35095   0.34881  -0.1558  0.0146  1.0000  -0.9668   0.0000   0.0000   0.0000   0.3974
  28.500   0.8519   0.35166   0.34952  -0.1563  0.0146  1.0000  -0.9581   0.0000   0.0000   0.0000   0.3979
  28.600   0.8516   0.35237   0.35024  -0.1568  0.0145  1.0000  -0.9495   0.0000   0.0000   0.0000   0.3983
  28.700   0.8514   0.35310   0.35098  -0.1573  0.0145  1.0000  -0.9408   0.0000   0.0000   0.0000   0.3987
  28.800   0.8512   0.35384   0.35172  -0.1578  0.0144  1.0000  -0.9320   0.0000   0.0000   0.0000   0.3992
  28.900   0.8510   0.35460   0.35249  -0.1583  0.0143  1.0000  -0.9231   0.0000   0.0000   0.0000   0.3996
  29.000   0.8509   0.35539   0.35328  -0.1589  0.0143  1.0000  -0.9140   0.0000   0.0000   0.0000   0.4001
  29.100   0.8509   0.35620   0.35411  -0.1594  0.0142  1.0000  -0.9047   0.0000   0.0000   0.0000   0.4005
  29.200   0.8510   0.35706   0.35497  -0.1600  0.0141  1.0000  -0.8950   0.0000   0.0000   0.0000   0.4009
  29.300   0.8511   0.35796   0.35587  -0.1605  0.0139  1.0000  -0.8852   0.0000   0.0000   0.0000   0.4013
  29.400   0.8513   0.35888   0.35681  -0.1611  0.0138  1.0000  -0.8754   0.0000   0.0000   0.0000   0.4017
  29.500   0.8516   0.35983   0.35776  -0.1616  0.0136  1.0000  -0.8660   0.0000   0.0000   0.0000   0.4021
  29.600   0.8518   0.36076   0.35870  -0.1621  0.0133  1.0000  -0.8575   0.0000   0.0000   0.0000   0.4024
  29.700   0.8519   0.36167   0.35962  -0.1626  0.0131  1.0000  -0.8501   0.0000   0.0000   0.0000   0.4027
  29.800   0.8520   0.36257   0.36052  -0.1630  0.0128  1.0000  -0.8434   0.0000   0.0000   0.0000   0.4030


