xflr5 v6.61

 Calculated polar for: SD7032-099-88

 1 1 Reynolds number fixed          Mach number fixed         

 xtrf =   1.000 (top)        1.000 (bottom)
 Mach =   0.000     Re =     0.080 e 6     Ncrit =   9.000

  alpha     CL        CD       CDp       Cm    Top Xtr Bot Xtr   Cpmin    Chinge    XCp    
 ------- -------- --------- --------- -------- ------- ------- -------- --------- ---------
   0.000   0.3259   0.02119   0.01370  -0.0869  0.8729  1.0000  -0.5962   0.0000   0.0000   0.0000   0.5161
   0.500   0.4070   0.02135   0.01355  -0.0911  0.8494  1.0000  -0.6627   0.0000   0.0000   0.0000   0.4726
   1.000   0.4896   0.02106   0.01305  -0.0947  0.8277  1.0000  -0.7418   0.0000   0.0000   0.0000   0.4417
   1.500   0.5484   0.02107   0.01293  -0.0944  0.7980  1.0000  -0.8106   0.0000   0.0000   0.0000   0.4199
   2.000   0.6241   0.02050   0.01225  -0.0959  0.7776  1.0000  -0.8999   0.0000   0.0000   0.0000   0.4009
   2.500   0.6831   0.02009   0.01188  -0.0948  0.7466  1.0000  -0.9788   0.0000   0.0000   0.0000   0.3856
   3.000   0.7369   0.02019   0.01191  -0.0933  0.7142  1.0000  -1.0631   0.0000   0.0000   0.0000   0.3731
   3.500   0.7979   0.01995   0.01156  -0.0924  0.6839  1.0000  -1.1573   0.0000   0.0000   0.0000   0.3617
   4.000   0.8573   0.01973   0.01117  -0.0911  0.6489  1.0000  -1.2588   0.0000   0.0000   0.0000   0.3517
   4.500   0.9066   0.02012   0.01155  -0.0893  0.6099  1.0000  -1.3580   0.0000   0.0000   0.0000   0.3434
   5.000   0.9567   0.02077   0.01216  -0.0876  0.5712  1.0000  -1.4799   0.0000   0.0000   0.0000   0.3360
   5.500   1.0075   0.02157   0.01289  -0.0861  0.5341  1.0000  -1.6272   0.0000   0.0000   0.0000   0.3293
   6.000   1.0585   0.02238   0.01354  -0.0845  0.4949  1.0000  -1.8170   0.0000   0.0000   0.0000   0.3231
   6.500   1.1058   0.02320   0.01497  -0.0828  0.4604  1.0000  -2.0140   0.0000   0.0000   0.0000   0.3175
   7.000   1.1506   0.02446   0.01635  -0.0809  0.4234  1.0000  -2.2035   0.0000   0.0000   0.0000   0.3123
   7.500   1.1955   0.02591   0.01782  -0.0791  0.3877  1.0000  -2.5656   0.0000   0.0000   0.0000   0.3075
   8.000   1.2403   0.02737   0.01919  -0.0772  0.3507  1.0000  -2.9681   0.0000   0.0000   0.0000   0.3028
   8.500   1.2809   0.02856   0.02044  -0.0747  0.3158  1.0000  -3.3738   0.0000   0.0000   0.0000   0.2982
   9.000   1.3161   0.03010   0.02219  -0.0718  0.2806  1.0000  -3.7699   0.0000   0.0000   0.0000   0.2937
   9.500   1.3482   0.03183   0.02400  -0.0686  0.2444  1.0000  -4.1721   0.0000   0.0000   0.0000   0.2892
  10.000   1.3742   0.03434   0.02690  -0.0647  0.2070  1.0000  -4.4520   0.0000   0.0000   0.0000   0.2847
  10.500   1.3898   0.03618   0.02873  -0.0600  0.1729  1.0000  -4.8034   0.0000   0.0000   0.0000   0.2799
  11.000   1.3861   0.03775   0.03020  -0.0535  0.1436  1.0000  -5.0913   0.0000   0.0000   0.0000   0.2745
  11.500   1.3754   0.04069   0.03301  -0.0481  0.1188  1.0000  -5.3309   0.0000   0.0000   0.0000   0.2700
  12.000   1.3696   0.04456   0.03728  -0.0447  0.0998  1.0000  -5.5690   0.0000   0.0000   0.0000   0.2668
  12.500   1.3578   0.05016   0.04306  -0.0427  0.0816  1.0000  -5.7482   0.0000   0.0000   0.0000   0.2647
  13.000   1.3320   0.05799   0.05088  -0.0428  0.0655  1.0000  -5.8244   0.0000   0.0000   0.0000   0.2644
  13.500   1.3070   0.06735   0.06065  -0.0446  0.0514  1.0000  -5.8283   0.0000   0.0000   0.0000   0.2654
  14.000   1.2730   0.07907   0.07253  -0.0478  0.0416  1.0000  -5.7050   0.0000   0.0000   0.0000   0.2679
  14.500   1.2443   0.09118   0.08494  -0.0526  0.0341  1.0000  -5.5850   0.0000   0.0000   0.0000   0.2717
  15.000   1.2169   0.10320   0.09709  -0.0579  0.0296  1.0000  -5.4708   0.0000   0.0000   0.0000   0.2762
  15.500   1.1953   0.11447   0.10870  -0.0627  0.0268  1.0000  -5.3325   0.0000   0.0000   0.0000   0.2802
  16.000   1.1702   0.12788   0.12251  -0.0704  0.0261  1.0000  -5.1413   0.0000   0.0000   0.0000   0.2872
  16.500   1.1390   0.14489   0.13987  -0.0802  0.0265  1.0000  -4.8227   0.0000   0.0000   0.0000   0.2970
  17.000   1.1006   0.16661   0.16180  -0.0918  0.0278  1.0000  -4.3108   0.0000   0.0000   0.0000   0.3099
  17.500   1.0346   0.20859   0.20377  -0.1097  0.0386  1.0000  -2.9400   0.0000   0.0000   0.0000   0.3340
  18.000   1.0267   0.22587   0.22099  -0.1161  0.0355  1.0000  -2.6219   0.0000   0.0000   0.0000   0.3407
  18.500   1.0259   0.23983   0.23493  -0.1206  0.0327  1.0000  -2.4696   0.0000   0.0000   0.0000   0.3447
  19.500   1.0125   0.27320   0.26826  -0.1302  0.0367  1.0000  -1.9610   0.0000   0.0000   0.0000   0.3550
  20.000   1.0113   0.28711   0.28222  -0.1313  0.0430  1.0000  -1.8748   0.0000   0.0000   0.0000   0.3556


