xflr5 v6.61

 Calculated polar for: SD7037-092-88

 1 1 Reynolds number fixed          Mach number fixed         

 xtrf =   1.000 (top)        1.000 (bottom)
 Mach =   0.000     Re =     0.051 e 6     Ncrit =   9.000

  alpha     CL        CD       CDp       Cm    Top Xtr Bot Xtr   Cpmin    Chinge    XCp    
 ------- -------- --------- --------- -------- ------- ------- -------- --------- ---------
   0.000   0.0647   0.02147   0.01213  -0.0388  1.0000  1.0000  -0.9458   0.0000   0.0000   0.0000   0.8502
   0.100   0.0722   0.02174   0.01233  -0.0388  1.0000  1.0000  -0.9064   0.0000   0.0000   0.0000   0.7873
   0.200   0.0797   0.02202   0.01254  -0.0389  1.0000  1.0000  -0.8677   0.0000   0.0000   0.0000   0.7369
   0.300   0.0870   0.02230   0.01277  -0.0389  1.0000  1.0000  -0.8295   0.0000   0.0000   0.0000   0.6956
   0.400   0.0943   0.02260   0.01301  -0.0389  1.0000  1.0000  -0.7920   0.0000   0.0000   0.0000   0.6612
   0.500   0.1152   0.02311   0.01343  -0.0414  0.9939  1.0000  -0.7240   0.0000   0.0000   0.0000   0.6079
   0.600   0.1393   0.02371   0.01394  -0.0444  0.9875  1.0000  -0.6495   0.0000   0.0000   0.0000   0.5668
   0.700   0.1584   0.02414   0.01431  -0.0465  0.9799  1.0000  -0.5872   0.0000   0.0000   0.0000   0.5418
   0.800   0.1807   0.02468   0.01478  -0.0491  0.9738  1.0000  -0.5173   0.0000   0.0000   0.0000   0.5198
   0.900   0.1985   0.02511   0.01516  -0.0509  0.9671  1.0000  -0.4923   0.0000   0.0000   0.0000   0.5044
   1.000   0.2161   0.02550   0.01553  -0.0526  0.9594  1.0000  -0.5066   0.0000   0.0000   0.0000   0.4914
   1.100   0.2402   0.02603   0.01601  -0.0554  0.9530  1.0000  -0.5255   0.0000   0.0000   0.0000   0.4784
   1.200   0.2568   0.02641   0.01634  -0.0568  0.9453  1.0000  -0.5392   0.0000   0.0000   0.0000   0.4691
   1.300   0.2725   0.02672   0.01661  -0.0581  0.9366  1.0000  -0.5524   0.0000   0.0000   0.0000   0.4609
   1.400   0.2961   0.02714   0.01699  -0.0606  0.9294  1.0000  -0.5714   0.0000   0.0000   0.0000   0.4525
   1.500   0.3204   0.02761   0.01741  -0.0632  0.9230  1.0000  -0.5936   0.0000   0.0000   0.0000   0.4451
   1.600   0.3270   0.02779   0.01757  -0.0629  0.9134  1.0000  -0.6021   0.0000   0.0000   0.0000   0.4399
   1.700   0.3440   0.02808   0.01784  -0.0642  0.9055  1.0000  -0.6189   0.0000   0.0000   0.0000   0.4343
   1.800   0.3671   0.02843   0.01817  -0.0665  0.8991  1.0000  -0.6408   0.0000   0.0000   0.0000   0.4287
   1.900   0.3935   0.02884   0.01855  -0.0693  0.8936  1.0000  -0.6654   0.0000   0.0000   0.0000   0.4235
   2.000   0.3934   0.02900   0.01872  -0.0678  0.8833  1.0000  -0.6686   0.0000   0.0000   0.0000   0.4198
   2.100   0.4084   0.02922   0.01892  -0.0687  0.8746  1.0000  -0.6843   0.0000   0.0000   0.0000   0.4155
   2.200   0.4313   0.02940   0.01910  -0.0706  0.8673  1.0000  -0.7068   0.0000   0.0000   0.0000   0.4111
   2.300   0.4616   0.02957   0.01928  -0.0736  0.8616  1.0000  -0.7380   0.0000   0.0000   0.0000   0.4067
   2.400   0.4633   0.02985   0.01956  -0.0724  0.8518  1.0000  -0.7443   0.0000   0.0000   0.0000   0.4035
   2.500   0.4722   0.03005   0.01976  -0.0723  0.8422  1.0000  -0.7574   0.0000   0.0000   0.0000   0.4001
   2.600   0.4908   0.03017   0.01989  -0.0734  0.8346  1.0000  -0.7799   0.0000   0.0000   0.0000   0.3966
   2.700   0.5160   0.03019   0.01994  -0.0755  0.8286  1.0000  -0.8091   0.0000   0.0000   0.0000   0.3932
   2.800   0.5463   0.03014   0.01992  -0.0781  0.8236  1.0000  -0.8435   0.0000   0.0000   0.0000   0.3899
   2.900   0.5400   0.03064   0.02041  -0.0759  0.8126  1.0000  -0.8418   0.0000   0.0000   0.0000   0.3873
   3.000   0.5491   0.03082   0.02061  -0.0756  0.8029  1.0000  -0.8556   0.0000   0.0000   0.0000   0.3844
   3.100   0.5699   0.03072   0.02054  -0.0767  0.7950  1.0000  -0.8813   0.0000   0.0000   0.0000   0.3813
   3.200   0.5978   0.03041   0.02028  -0.0786  0.7888  1.0000  -0.9168   0.0000   0.0000   0.0000   0.3782
   3.300   0.6266   0.03001   0.01993  -0.0804  0.7839  1.0000  -0.9573   0.0000   0.0000   0.0000   0.3748
   3.400   0.6256   0.03057   0.02050  -0.0790  0.7733  1.0000  -0.9623   0.0000   0.0000   0.0000   0.3727
   3.500   0.6311   0.03087   0.02081  -0.0782  0.7629  1.0000  -0.9750   0.0000   0.0000   0.0000   0.3704
   3.600   0.6482   0.03073   0.02072  -0.0786  0.7552  1.0000  -1.0020   0.0000   0.0000   0.0000   0.3676
   3.700   0.6700   0.03035   0.02037  -0.0793  0.7487  1.0000  -1.0353   0.0000   0.0000   0.0000   0.3647
   3.800   0.6942   0.02982   0.02004  -0.0801  0.7436  1.0000  -1.0723   0.0000   0.0000   0.0000   0.3616
   3.900   0.7207   0.02922   0.01947  -0.0810  0.7389  1.0000  -1.1126   0.0000   0.0000   0.0000   0.3586
   4.000   0.7107   0.03026   0.02052  -0.0790  0.7251  1.0000  -1.1056   0.0000   0.0000   0.0000   0.3572
   4.100   0.7211   0.03028   0.02057  -0.0785  0.7152  1.0000  -1.1254   0.0000   0.0000   0.0000   0.3548
   4.200   0.7394   0.02988   0.02020  -0.0786  0.7074  1.0000  -1.1591   0.0000   0.0000   0.0000   0.3521
   4.300   0.7613   0.02928   0.01962  -0.0788  0.7009  1.0000  -1.2017   0.0000   0.0000   0.0000   0.3494
   4.400   0.7852   0.02865   0.01901  -0.0792  0.6953  1.0000  -1.2477   0.0000   0.0000   0.0000   0.3467
   4.500   0.7886   0.02921   0.01959  -0.0783  0.6850  1.0000  -1.2612   0.0000   0.0000   0.0000   0.3450
   4.600   0.7921   0.02966   0.02008  -0.0774  0.6734  1.0000  -1.2750   0.0000   0.0000   0.0000   0.3433
   4.700   0.8058   0.02944   0.01989  -0.0770  0.6639  1.0000  -1.3097   0.0000   0.0000   0.0000   0.3410
   4.800   0.8252   0.02883   0.01929  -0.0768  0.6558  1.0000  -1.3583   0.0000   0.0000   0.0000   0.3385
   4.900   0.8481   0.02813   0.01856  -0.0768  0.6483  1.0000  -1.4139   0.0000   0.0000   0.0000   0.3359
   5.000   0.8535   0.02858   0.01905  -0.0760  0.6378  1.0000  -1.4353   0.0000   0.0000   0.0000   0.3343
   5.100   0.8572   0.02903   0.01955  -0.0750  0.6259  1.0000  -1.4537   0.0000   0.0000   0.0000   0.3327
   5.200   0.8691   0.02894   0.01948  -0.0745  0.6157  1.0000  -1.4884   0.0000   0.0000   0.0000   0.3307
   5.300   0.8864   0.02854   0.01906  -0.0742  0.6068  1.0000  -1.5342   0.0000   0.0000   0.0000   0.3286
   5.400   0.9061   0.02817   0.01861  -0.0740  0.5982  1.0000  -1.5851   0.0000   0.0000   0.0000   0.3265
   5.500   0.9088   0.02881   0.01934  -0.0731  0.5874  1.0000  -1.6010   0.0000   0.0000   0.0000   0.3252
   5.600   0.9141   0.02918   0.01977  -0.0723  0.5756  1.0000  -1.6227   0.0000   0.0000   0.0000   0.3237
   5.700   0.9264   0.02903   0.01961  -0.0716  0.5644  1.0000  -1.6630   0.0000   0.0000   0.0000   0.3219
   5.800   0.9435   0.02861   0.01911  -0.0712  0.5541  1.0000  -1.7452   0.0000   0.0000   0.0000   0.3199
   5.900   0.9555   0.02884   0.01927  -0.0707  0.5438  1.0000  -1.8100   0.0000   0.0000   0.0000   0.3183
   6.000   0.9585   0.02938   0.01994  -0.0698  0.5325  1.0000  -1.8428   0.0000   0.0000   0.0000   0.3170
   6.100   0.9669   0.02961   0.02021  -0.0691  0.5211  1.0000  -1.8949   0.0000   0.0000   0.0000   0.3156
   6.200   0.9795   0.02957   0.02013  -0.0686  0.5107  1.0000  -1.9638   0.0000   0.0000   0.0000   0.3140
   6.300   0.9950   0.02953   0.01996  -0.0682  0.5006  1.0000  -2.0443   0.0000   0.0000   0.0000   0.3124
   6.400   1.0011   0.03015   0.02065  -0.0675  0.4905  1.0000  -2.0888   0.0000   0.0000   0.0000   0.3112
   6.500   1.0060   0.03061   0.02122  -0.0667  0.4793  1.0000  -2.1296   0.0000   0.0000   0.0000   0.3100
   6.600   1.0155   0.03072   0.02133  -0.0660  0.4676  1.0000  -2.1899   0.0000   0.0000   0.0000   0.3086
   6.700   1.0292   0.03055   0.02104  -0.0654  0.4563  1.0000  -2.2685   0.0000   0.0000   0.0000   0.3070
   6.800   1.0408   0.03104   0.02141  -0.0650  0.4454  1.0000  -2.3375   0.0000   0.0000   0.0000   0.3058
   6.900   1.0442   0.03157   0.02211  -0.0641  0.4356  1.0000  -2.3734   0.0000   0.0000   0.0000   0.3046
   7.000   1.0510   0.03199   0.02261  -0.0634  0.4250  1.0000  -2.4226   0.0000   0.0000   0.0000   0.3034
   7.100   1.0613   0.03220   0.02280  -0.0628  0.4149  1.0000  -2.4869   0.0000   0.0000   0.0000   0.3022
   7.200   1.0744   0.03234   0.02280  -0.0624  0.4049  1.0000  -2.5828   0.0000   0.0000   0.0000   0.3010
   7.300   1.0809   0.03331   0.02455  -0.0616  0.3927  1.0000  -2.7509   0.0000   0.0000   0.0000   0.2998
   7.400   1.0852   0.03384   0.02527  -0.0607  0.3822  1.0000  -2.8255   0.0000   0.0000   0.0000   0.2986
   7.500   1.0935   0.03403   0.02549  -0.0600  0.3705  1.0000  -2.9263   0.0000   0.0000   0.0000   0.2974
   7.600   1.1061   0.03398   0.02530  -0.0594  0.3588  1.0000  -3.0560   0.0000   0.0000   0.0000   0.2961
   7.700   1.1149   0.03495   0.02620  -0.0590  0.3485  1.0000  -3.1505   0.0000   0.0000   0.0000   0.2951
   7.800   1.1186   0.03561   0.02709  -0.0581  0.3408  1.0000  -3.2079   0.0000   0.0000   0.0000   0.2941
   7.900   1.1239   0.03628   0.02789  -0.0573  0.3321  1.0000  -3.2762   0.0000   0.0000   0.0000   0.2931
   8.000   1.1323   0.03669   0.02833  -0.0567  0.3227  1.0000  -3.3674   0.0000   0.0000   0.0000   0.2920
   8.100   1.1444   0.03687   0.02837  -0.0563  0.3126  1.0000  -3.4888   0.0000   0.0000   0.0000   0.2909
   8.200   1.1522   0.03817   0.02960  -0.0558  0.3032  1.0000  -3.5737   0.0000   0.0000   0.0000   0.2901
   8.300   1.1551   0.03871   0.03036  -0.0548  0.2958  1.0000  -3.6286   0.0000   0.0000   0.0000   0.2890
   8.400   1.1595   0.03920   0.03098  -0.0539  0.2866  1.0000  -3.6958   0.0000   0.0000   0.0000   0.2879
   8.500   1.1682   0.03930   0.03105  -0.0532  0.2764  1.0000  -3.7978   0.0000   0.0000   0.0000   0.2868
   8.600   1.1803   0.03962   0.03117  -0.0528  0.2666  1.0000  -3.9223   0.0000   0.0000   0.0000   0.2859
   8.700   1.1856   0.04139   0.03297  -0.0524  0.2595  1.0000  -3.9824   0.0000   0.0000   0.0000   0.2852
   8.800   1.1879   0.04226   0.03408  -0.0514  0.2544  1.0000  -4.0254   0.0000   0.0000   0.0000   0.2841
   8.900   1.1908   0.04324   0.03525  -0.0505  0.2484  1.0000  -4.0717   0.0000   0.0000   0.0000   0.2832
   9.000   1.1945   0.04414   0.03628  -0.0496  0.2418  1.0000  -4.1263   0.0000   0.0000   0.0000   0.2822
   9.100   1.2022   0.04456   0.03671  -0.0489  0.2339  1.0000  -4.2148   0.0000   0.0000   0.0000   0.2812
   9.200   1.2163   0.04492   0.03679  -0.0488  0.2232  1.0000  -4.3567   0.0000   0.0000   0.0000   0.2804
   9.300   1.2173   0.04663   0.03859  -0.0480  0.2173  1.0000  -4.3913   0.0000   0.0000   0.0000   0.2796
   9.400   1.2176   0.04726   0.03944  -0.0468  0.2118  1.0000  -4.4278   0.0000   0.0000   0.0000   0.2785
   9.500   1.2195   0.04792   0.04024  -0.0458  0.2050  1.0000  -4.4762   0.0000   0.0000   0.0000   0.2775
   9.600   1.2235   0.04854   0.04094  -0.0449  0.1983  1.0000  -4.5379   0.0000   0.0000   0.0000   0.2765
   9.700   1.2319   0.04907   0.04143  -0.0443  0.1914  1.0000  -4.6263   0.0000   0.0000   0.0000   0.2756
   9.800   1.2427   0.05051   0.04270  -0.0441  0.1838  1.0000  -4.7227   0.0000   0.0000   0.0000   0.2750
   9.900   1.2405   0.05313   0.04544  -0.0433  0.1804  1.0000  -4.7182   0.0000   0.0000   0.0000   0.2744
  10.000   1.2379   0.05433   0.04687  -0.0421  0.1781  1.0000  -4.7207   0.0000   0.0000   0.0000   0.2733
  10.100   1.2342   0.05578   0.04853  -0.0409  0.1757  1.0000  -4.7148   0.0000   0.0000   0.0000   0.2724
  10.200   1.2296   0.05738   0.05031  -0.0398  0.1734  1.0000  -4.7033   0.0000   0.0000   0.0000   0.2715
  10.300   1.2243   0.05907   0.05217  -0.0387  0.1712  1.0000  -4.6877   0.0000   0.0000   0.0000   0.2707
  10.400   1.2184   0.06074   0.05398  -0.0376  0.1691  1.0000  -4.6713   0.0000   0.0000   0.0000   0.2699
  10.500   1.2126   0.06232   0.05568  -0.0366  0.1666  1.0000  -4.6581   0.0000   0.0000   0.0000   0.2691
  10.600   1.2437   0.05971   0.05253  -0.0362  0.1423  1.0000  -4.9314   0.0000   0.0000   0.0000   0.2676
  10.700   1.2371   0.06088   0.05388  -0.0350  0.1397  1.0000  -4.9149   0.0000   0.0000   0.0000   0.2666
  10.800   1.2299   0.06242   0.05557  -0.0338  0.1378  1.0000  -4.8892   0.0000   0.0000   0.0000   0.2657
  10.900   1.2217   0.06405   0.05732  -0.0327  0.1364  1.0000  -4.8598   0.0000   0.0000   0.0000   0.2649
  11.000   1.2124   0.06569   0.05907  -0.0315  0.1355  1.0000  -4.8280   0.0000   0.0000   0.0000   0.2641
  11.100   1.2023   0.06747   0.06094  -0.0306  0.1351  1.0000  -4.7930   0.0000   0.0000   0.0000   0.2634
  11.200   1.1912   0.06941   0.06297  -0.0298  0.1352  1.0000  -4.7536   0.0000   0.0000   0.0000   0.2629
  11.300   1.1792   0.07154   0.06519  -0.0294  0.1358  1.0000  -4.7094   0.0000   0.0000   0.0000   0.2627
  11.400   1.1665   0.07388   0.06759  -0.0293  0.1368  1.0000  -4.6606   0.0000   0.0000   0.0000   0.2628
  11.500   1.1533   0.07640   0.07017  -0.0295  0.1380  1.0000  -4.6078   0.0000   0.0000   0.0000   0.2631
  11.600   1.1399   0.07923   0.07305  -0.0300  0.1394  1.0000  -4.5486   0.0000   0.0000   0.0000   0.2638
  11.700   1.1267   0.08239   0.07625  -0.0308  0.1411  1.0000  -4.4832   0.0000   0.0000   0.0000   0.2647
  11.800   1.1139   0.08580   0.07968  -0.0319  0.1426  1.0000  -4.4148   0.0000   0.0000   0.0000   0.2659
  11.900   1.1017   0.08941   0.08330  -0.0331  0.1439  1.0000  -4.3443   0.0000   0.0000   0.0000   0.2672
  12.000   1.0900   0.09322   0.08711  -0.0345  0.1449  1.0000  -4.2716   0.0000   0.0000   0.0000   0.2687
  12.100   1.0787   0.09719   0.09108  -0.0359  0.1457  1.0000  -4.1972   0.0000   0.0000   0.0000   0.2703
  12.200   1.1221   0.08775   0.08166  -0.0296  0.1170  1.0000  -4.5269   0.0000   0.0000   0.0000   0.2628
  12.300   1.1145   0.09056   0.08447  -0.0303  0.1157  1.0000  -4.4893   0.0000   0.0000   0.0000   0.2635
  12.400   0.9669   0.12942   0.12298  -0.0602  0.1854  1.0000  -3.1180   0.0000   0.0000   0.0000   0.2999
  12.500   0.9676   0.13202   0.12561  -0.0607  0.1847  1.0000  -3.1156   0.0000   0.0000   0.0000   0.3003
  12.700   1.1073   0.09171   0.08554  -0.0309  0.0900  1.0000  -4.6060   0.0000   0.0000   0.0000   0.2633
  12.800   1.1001   0.09430   0.08814  -0.0320  0.0891  1.0000  -4.5702   0.0000   0.0000   0.0000   0.2644
  12.900   1.0930   0.09700   0.09085  -0.0331  0.0882  1.0000  -4.5322   0.0000   0.0000   0.0000   0.2655
  13.200   0.8674   0.16543   0.15855  -0.0882  0.2913  1.0000  -2.0706   0.0000   0.0000   0.0000   0.3395
  13.300   0.8664   0.16621   0.15933  -0.0887  0.2870  1.0000  -2.0682   0.0000   0.0000   0.0000   0.3401
  13.400   0.8678   0.16742   0.16057  -0.0891  0.2826  1.0000  -2.0782   0.0000   0.0000   0.0000   0.3402
  13.500   0.8714   0.16896   0.16215  -0.0893  0.2784  1.0000  -2.0988   0.0000   0.0000   0.0000   0.3399
  13.600   0.8772   0.17092   0.16416  -0.0893  0.2745  1.0000  -2.1302   0.0000   0.0000   0.0000   0.3391
  13.700   0.8862   0.17358   0.16688  -0.0890  0.2709  1.0000  -2.1750   0.0000   0.0000   0.0000   0.3378
  13.800   0.9014   0.17795   0.17134  -0.0885  0.2674  1.0000  -2.2426   0.0000   0.0000   0.0000   0.3354
  13.900   0.9271   0.19035   0.18385  -0.0869  0.2597  1.0000  -2.3421   0.0000   0.0000   0.0000   0.3309
  14.000   0.9192   0.18974   0.18321  -0.0882  0.2590  1.0000  -2.3006   0.0000   0.0000   0.0000   0.3330
  14.100   0.9106   0.18858   0.18201  -0.0896  0.2579  1.0000  -2.2567   0.0000   0.0000   0.0000   0.3353
  14.200   0.9013   0.18689   0.18028  -0.0908  0.2564  1.0000  -2.2122   0.0000   0.0000   0.0000   0.3375
  14.300   0.8923   0.18515   0.17850  -0.0921  0.2536  1.0000  -2.1688   0.0000   0.0000   0.0000   0.3398
  14.400   0.8863   0.18416   0.17749  -0.0932  0.2474  1.0000  -2.1385   0.0000   0.0000   0.0000   0.3416
  14.500   0.8973   0.18497   0.17838  -0.0917  0.2306  1.0000  -2.2035   0.0000   0.0000   0.0000   0.3385
  14.600   0.9503   0.20670   0.20034  -0.0864  0.2194  1.0000  -2.3460   0.0000   0.0000   0.0000   0.3274
  14.700   0.9468   0.20765   0.20127  -0.0876  0.2192  1.0000  -2.3113   0.0000   0.0000   0.0000   0.3288
  14.800   0.9429   0.20807   0.20168  -0.0889  0.2189  1.0000  -2.2766   0.0000   0.0000   0.0000   0.3304
  14.900   0.9383   0.20794   0.20151  -0.0902  0.2184  1.0000  -2.2413   0.0000   0.0000   0.0000   0.3322
  15.000   0.9321   0.20710   0.20065  -0.0917  0.2178  1.0000  -2.2038   0.0000   0.0000   0.0000   0.3343
  15.100   0.9242   0.20555   0.19906  -0.0933  0.2168  1.0000  -2.1640   0.0000   0.0000   0.0000   0.3366
  15.200   0.9149   0.20344   0.19691  -0.0948  0.2152  1.0000  -2.1227   0.0000   0.0000   0.0000   0.3392
  15.300   0.9072   0.20193   0.19537  -0.0964  0.2121  1.0000  -2.0827   0.0000   0.0000   0.0000   0.3416
  15.400   0.9039   0.20207   0.19548  -0.0976  0.2078  1.0000  -2.0527   0.0000   0.0000   0.0000   0.3432
  15.500   0.9039   0.20323   0.19665  -0.0984  0.2033  1.0000  -2.0315   0.0000   0.0000   0.0000   0.3440
  15.600   0.9059   0.20486   0.19829  -0.0988  0.1987  1.0000  -2.0159   0.0000   0.0000   0.0000   0.3440
  15.700   0.9305   0.21286   0.20635  -0.0947  0.1780  1.0000  -2.0680   0.0000   0.0000   0.0000   0.3366
  15.800   0.9244   0.21228   0.20575  -0.0963  0.1767  1.0000  -2.0296   0.0000   0.0000   0.0000   0.3389
  15.900   0.9188   0.21184   0.20528  -0.0980  0.1742  1.0000  -1.9911   0.0000   0.0000   0.0000   0.3412
  16.000   0.9152   0.21183   0.20525  -0.0994  0.1682  1.0000  -1.9595   0.0000   0.0000   0.0000   0.3430
  16.100   0.9220   0.21281   0.20626  -0.0986  0.1560  1.0000  -1.9705   0.0000   0.0000   0.0000   0.3411
  16.200   0.9332   0.21606   0.20956  -0.0972  0.1516  1.0000  -1.9830   0.0000   0.0000   0.0000   0.3383
  16.300   0.9694   0.23514   0.22874  -0.0918  0.1459  1.0000  -2.0587   0.0000   0.0000   0.0000   0.3289
  16.400   0.9701   0.23731   0.23091  -0.0928  0.1458  1.0000  -2.0356   0.0000   0.0000   0.0000   0.3297
  16.500   0.9707   0.23938   0.23298  -0.0937  0.1457  1.0000  -2.0130   0.0000   0.0000   0.0000   0.3305
  16.600   0.9703   0.24120   0.23479  -0.0948  0.1456  1.0000  -1.9887   0.0000   0.0000   0.0000   0.3315
  16.700   0.9698   0.24292   0.23649  -0.0959  0.1455  1.0000  -1.9646   0.0000   0.0000   0.0000   0.3325
  16.800   0.9692   0.24450   0.23807  -0.0970  0.1454  1.0000  -1.9406   0.0000   0.0000   0.0000   0.3336
  16.900   0.9684   0.24593   0.23950  -0.0981  0.1453  1.0000  -1.9166   0.0000   0.0000   0.0000   0.3347
  17.000   0.9673   0.24717   0.24073  -0.0993  0.1451  1.0000  -1.8922   0.0000   0.0000   0.0000   0.3359
  17.100   0.9655   0.24813   0.24167  -0.1005  0.1448  1.0000  -1.8665   0.0000   0.0000   0.0000   0.3372
  17.200   0.9628   0.24868   0.24221  -0.1018  0.1445  1.0000  -1.8385   0.0000   0.0000   0.0000   0.3387
  17.300   0.9585   0.24864   0.24215  -0.1032  0.1441  1.0000  -1.8076   0.0000   0.0000   0.0000   0.3405
  17.400   0.9533   0.24820   0.24169  -0.1046  0.1435  1.0000  -1.7740   0.0000   0.0000   0.0000   0.3424
  17.500   0.9478   0.24753   0.24100  -0.1063  0.1425  1.0000  -1.7379   0.0000   0.0000   0.0000   0.3446
  17.600   0.9431   0.24719   0.24064  -0.1079  0.1408  1.0000  -1.7027   0.0000   0.0000   0.0000   0.3468
  17.700   0.9408   0.24787   0.24132  -0.1093  0.1386  1.0000  -1.6757   0.0000   0.0000   0.0000   0.3484
  17.800   0.9403   0.24928   0.24272  -0.1104  0.1365  1.0000  -1.6565   0.0000   0.0000   0.0000   0.3495
  17.900   0.9407   0.25100   0.24445  -0.1112  0.1345  1.0000  -1.6418   0.0000   0.0000   0.0000   0.3502
  18.000   0.9415   0.25286   0.24632  -0.1119  0.1326  1.0000  -1.6301   0.0000   0.0000   0.0000   0.3507
  18.100   0.9426   0.25480   0.24826  -0.1126  0.1308  1.0000  -1.6204   0.0000   0.0000   0.0000   0.3511
  18.200   0.9439   0.25678   0.25025  -0.1131  0.1292  1.0000  -1.6126   0.0000   0.0000   0.0000   0.3514
  18.300   0.9454   0.25880   0.25228  -0.1136  0.1277  1.0000  -1.6064   0.0000   0.0000   0.0000   0.3516
  18.400   0.9470   0.26085   0.25434  -0.1141  0.1262  1.0000  -1.6018   0.0000   0.0000   0.0000   0.3517
  18.500   0.9488   0.26293   0.25644  -0.1145  0.1248  1.0000  -1.5988   0.0000   0.0000   0.0000   0.3518
  18.600   0.9508   0.26506   0.25857  -0.1148  0.1235  1.0000  -1.5976   0.0000   0.0000   0.0000   0.3517
  18.700   0.9531   0.26724   0.26077  -0.1151  0.1223  1.0000  -1.5984   0.0000   0.0000   0.0000   0.3516
  18.800   0.9557   0.26952   0.26307  -0.1153  0.1211  1.0000  -1.6016   0.0000   0.0000   0.0000   0.3513
  18.900   0.9587   0.27195   0.26552  -0.1153  0.1200  1.0000  -1.6077   0.0000   0.0000   0.0000   0.3508
  19.000   0.9625   0.27463   0.26822  -0.1153  0.1189  1.0000  -1.6178   0.0000   0.0000   0.0000   0.3502
  19.100   0.9675   0.27781   0.27143  -0.1151  0.1178  1.0000  -1.6338   0.0000   0.0000   0.0000   0.3492
  19.200   0.9751   0.28213   0.27578  -0.1146  0.1166  1.0000  -1.6606   0.0000   0.0000   0.0000   0.3476
  19.300   0.9961   0.29317   0.28689  -0.1129  0.1150  1.0000  -1.7337   0.0000   0.0000   0.0000   0.3435
  19.400   1.0059   0.30445   0.29813  -0.1127  0.1139  1.0000  -1.7495   0.0000   0.0000   0.0000   0.3420
  19.500   1.0046   0.30578   0.29946  -0.1136  0.1138  1.0000  -1.7314   0.0000   0.0000   0.0000   0.3430
  19.600   1.0030   0.30698   0.30067  -0.1145  0.1137  1.0000  -1.7127   0.0000   0.0000   0.0000   0.3439
  19.700   1.0011   0.30805   0.30173  -0.1154  0.1136  1.0000  -1.6934   0.0000   0.0000   0.0000   0.3449
  19.800   0.9983   0.30884   0.30253  -0.1163  0.1135  1.0000  -1.6717   0.0000   0.0000   0.0000   0.3460
  19.900   0.9944   0.30930   0.30299  -0.1172  0.1133  1.0000  -1.6474   0.0000   0.0000   0.0000   0.3472
  20.000   0.9898   0.30952   0.30321  -0.1181  0.1132  1.0000  -1.6211   0.0000   0.0000   0.0000   0.3485


