xflr5 v6.61

 Calculated polar for: SD7062 (14%)

 1 1 Reynolds number fixed          Mach number fixed         

 xtrf =   1.000 (top)        1.000 (bottom)
 Mach =   0.000     Re =     0.040 e 6     Ncrit =   9.000

  alpha     CL        CD       CDp       Cm    Top Xtr Bot Xtr   Cpmin    Chinge    XCp    
 ------- -------- --------- --------- -------- ------- ------- -------- --------- ---------
   0.000   0.1362   0.04069   0.03200  -0.0689  0.8469  1.0000  -1.0148   0.0000   0.0000   0.0000   0.7601
   0.500   0.1998   0.04291   0.03361  -0.0729  0.8205  1.0000  -0.7444   0.0000   0.0000   0.0000   0.6159
   1.000   0.2341   0.04551   0.03569  -0.0732  0.7989  1.0000  -0.6727   0.0000   0.0000   0.0000   0.5622
   1.500   0.3273   0.04836   0.03805  -0.0792  0.7700  1.0000  -0.7558   0.0000   0.0000   0.0000   0.4899
   2.000   0.3329   0.05071   0.04022  -0.0760  0.7447  1.0000  -0.7607   0.0000   0.0000   0.0000   0.4754
   2.500   0.4120   0.05419   0.04340  -0.0801  0.7238  1.0000  -0.8311   0.0000   0.0000   0.0000   0.4408
   3.000   0.4064   0.05735   0.04646  -0.0768  0.7020  1.0000  -0.8267   0.0000   0.0000   0.0000   0.4347
   3.500   0.4798   0.06027   0.04919  -0.0789  0.6736  1.0000  -0.9073   0.0000   0.0000   0.0000   0.4096
   4.000   0.4741   0.06475   0.05362  -0.0770  0.6586  1.0000  -0.8957   0.0000   0.0000   0.0000   0.4071
   4.500   0.5290   0.06847   0.05727  -0.0786  0.6394  1.0000  -0.9515   0.0000   0.0000   0.0000   0.3926
   5.000   0.5394   0.07306   0.06191  -0.0773  0.6174  1.0000  -0.9658   0.0000   0.0000   0.0000   0.3867
   5.500   0.5502   0.07797   0.06679  -0.0771  0.6033  1.0000  -0.9759   0.0000   0.0000   0.0000   0.3829
   6.000   0.5485   0.08490   0.07376  -0.0781  0.6092  1.0000  -0.9594   0.0000   0.0000   0.0000   0.3848
   6.500   0.6125   0.09008   0.07890  -0.0801  0.5885  1.0000  -1.0338   0.0000   0.0000   0.0000   0.3728
   7.000   0.6179   0.09711   0.08597  -0.0814  0.5886  1.0000  -1.0311   0.0000   0.0000   0.0000   0.3731
   8.000   0.5919   0.11237   0.10140  -0.0854  0.6396  1.0000  -0.9618   0.0000   0.0000   0.0000   0.3846
   8.500   0.6317   0.12375   0.11279  -0.0887  0.6287  1.0000  -1.0000   0.0000   0.0000   0.0000   0.3802
   9.000   0.6479   0.12425   0.11334  -0.0867  0.5895  1.0000  -1.0202   0.0000   0.0000   0.0000   0.3731
   9.500   0.6980   0.13921   0.12835  -0.0911  0.5810  1.0000  -1.0775   0.0000   0.0000   0.0000   0.3693
  10.000   0.6579   0.13298   0.12216  -0.0867  0.5534  1.0000  -1.0263   0.0000   0.0000   0.0000   0.3698
  10.500   0.7310   0.14710   0.13640  -0.0908  0.5367  1.0000  -1.1286   0.0000   0.0000   0.0000   0.3617
  11.000   0.6971   0.14546   0.13476  -0.0890  0.5175  1.0000  -1.0708   0.0000   0.0000   0.0000   0.3645
  11.500   0.7452   0.15406   0.14367  -0.0904  0.4912  1.0000  -1.1381   0.0000   0.0000   0.0000   0.3574
  12.000   0.8046   0.17534   0.16506  -0.0949  0.4830  1.0000  -1.2159   0.0000   0.0000   0.0000   0.3536
  12.500   0.7493   0.16196   0.15167  -0.0928  0.4617  1.0000  -1.1265   0.0000   0.0000   0.0000   0.3586
  13.000   0.7873   0.17118   0.16100  -0.0942  0.4441  1.0000  -1.1948   0.0000   0.0000   0.0000   0.3538
  13.500   0.8245   0.18846   0.17837  -0.0969  0.4327  1.0000  -1.2503   0.0000   0.0000   0.0000   0.3510
  14.000   0.8027   0.18011   0.17005  -0.0973  0.4074  1.0000  -1.2066   0.0000   0.0000   0.0000   0.3539
  14.500   0.8517   0.19411   0.18422  -0.0986  0.3928  1.0000  -1.3182   0.0000   0.0000   0.0000   0.3477
  15.000   0.8871   0.21635   0.20659  -0.1020  0.3865  1.0000  -1.3834   0.0000   0.0000   0.0000   0.3463
  15.500   0.8448   0.20169   0.19191  -0.1039  0.3699  1.0000  -1.2909   0.0000   0.0000   0.0000   0.3533
  16.000   0.8766   0.21101   0.20138  -0.1047  0.3499  1.0000  -1.3645   0.0000   0.0000   0.0000   0.3490
  16.500   0.9231   0.23672   0.22725  -0.1069  0.3402  1.0000  -1.4490   0.0000   0.0000   0.0000   0.3448
  17.000   0.8856   0.22471   0.21524  -0.1103  0.3244  1.0000  -1.3449   0.0000   0.0000   0.0000   0.3525
  17.500   0.9060   0.23339   0.22406  -0.1118  0.3082  1.0000  -1.3718   0.0000   0.0000   0.0000   0.3505
  18.500   0.9423   0.26156   0.25286  -0.1162  0.2943  1.0000  -1.4107   0.0000   0.0000   0.0000   0.3489
  19.000   0.9284   0.25905   0.25043  -0.1195  0.2715  1.0000  -1.3726   0.0000   0.0000   0.0000   0.3532
  19.500   0.9684   0.27537   0.26698  -0.1192  0.2584  1.0000  -1.4935   0.0000   0.0000   0.0000   0.3468
  20.000   0.9908   0.29874   0.29047  -0.1220  0.2540  1.0000  -1.5238   0.0000   0.0000   0.0000   0.3461


