xflr5 v6.61

 Calculated polar for: SD7062 (14%)

 1 1 Reynolds number fixed          Mach number fixed         

 xtrf =   1.000 (top)        1.000 (bottom)
 Mach =   0.000     Re =     0.002 e 6     Ncrit =   9.000

  alpha     CL        CD       CDp       Cm    Top Xtr Bot Xtr   Cpmin    Chinge    XCp    
 ------- -------- --------- --------- -------- ------- ------- -------- --------- ---------
   0.000  -0.0423   0.09251   0.04704  -0.0265  1.0000  1.0000  -1.0238   0.0000   0.0000   0.0000  -0.3925
   0.500  -0.0163   0.09330   0.04647  -0.0262  1.0000  1.0000  -0.9231   0.0000   0.0000   0.0000  -1.3839
   1.000   0.0106   0.09436   0.04629  -0.0260  1.0000  1.0000  -0.8216   0.0000   0.0000   0.0000   2.7145
   1.500   0.0380   0.09568   0.04648  -0.0260  1.0000  1.0000  -0.7228   0.0000   0.0000   0.0000   0.9297
   2.000   0.0659   0.09723   0.04650  -0.0260  1.0000  1.0000  -0.6236   0.0000   0.0000   0.0000   0.6382
   2.500   0.0936   0.09902   0.04736  -0.0262  1.0000  1.0000  -0.6059   0.0000   0.0000   0.0000   0.5222
   3.000   0.1211   0.10105   0.04857  -0.0265  1.0000  1.0000  -0.6287   0.0000   0.0000   0.0000   0.4604
   3.500   0.1483   0.10329   0.05011  -0.0269  1.0000  1.0000  -0.6499   0.0000   0.0000   0.0000   0.4227
   4.000   0.1751   0.10575   0.05197  -0.0275  1.0000  1.0000  -0.6693   0.0000   0.0000   0.0000   0.3976
   4.500   0.2014   0.10842   0.05414  -0.0282  1.0000  1.0000  -0.6887   0.0000   0.0000   0.0000   0.3802
   5.000   0.2273   0.11129   0.05661  -0.0291  1.0000  1.0000  -0.7125   0.0000   0.0000   0.0000   0.3675
   5.500   0.2528   0.11436   0.05936  -0.0301  1.0000  1.0000  -0.7345   0.0000   0.0000   0.0000   0.3581
   6.000   0.2778   0.11762   0.06239  -0.0312  1.0000  1.0000  -0.7544   0.0000   0.0000   0.0000   0.3511
   6.500   0.3023   0.12107   0.06569  -0.0325  1.0000  1.0000  -0.7722   0.0000   0.0000   0.0000   0.3457
   7.000   0.3264   0.12470   0.06926  -0.0339  1.0000  1.0000  -0.7951   0.0000   0.0000   0.0000   0.3417
   7.500   0.3501   0.12851   0.07324  -0.0355  1.0000  1.0000  -0.8183   0.0000   0.0000   0.0000   0.3386
   8.000   0.3734   0.13252   0.07717  -0.0371  1.0000  1.0000  -0.8393   0.0000   0.0000   0.0000   0.3363
   8.500   0.3963   0.13670   0.08135  -0.0389  1.0000  1.0000  -0.8579   0.0000   0.0000   0.0000   0.3346
   9.000   0.4188   0.14106   0.08576  -0.0409  1.0000  1.0000  -0.8741   0.0000   0.0000   0.0000   0.3334
   9.500   0.4408   0.14559   0.09040  -0.0429  1.0000  1.0000  -0.8993   0.0000   0.0000   0.0000   0.3327
  10.000   0.4625   0.15031   0.09527  -0.0451  1.0000  1.0000  -0.9222   0.0000   0.0000   0.0000   0.3323
  10.500   0.4837   0.15521   0.10038  -0.0473  1.0000  1.0000  -0.9426   0.0000   0.0000   0.0000   0.3321
  11.000   0.5046   0.16029   0.10571  -0.0497  1.0000  1.0000  -0.9603   0.0000   0.0000   0.0000   0.3322
  11.500   0.5250   0.16555   0.11126  -0.0522  1.0000  1.0000  -0.9753   0.0000   0.0000   0.0000   0.3325
  12.000   0.5451   0.17097   0.11701  -0.0548  1.0000  1.0000  -0.9989   0.0000   0.0000   0.0000   0.3330
  12.500   0.5647   0.17657   0.12297  -0.0574  1.0000  1.0000  -1.0225   0.0000   0.0000   0.0000   0.3336
  13.000   0.5840   0.18237   0.12916  -0.0602  1.0000  1.0000  -1.0432   0.0000   0.0000   0.0000   0.3343
  13.500   0.6028   0.18844   0.13638  -0.0630  1.0000  1.0000  -1.0608   0.0000   0.0000   0.0000   0.3351
  14.000   0.6211   0.19471   0.14303  -0.0659  1.0000  1.0000  -1.0756   0.0000   0.0000   0.0000   0.3360
  14.500   0.6389   0.20122   0.14996  -0.0689  1.0000  1.0000  -1.0974   0.0000   0.0000   0.0000   0.3370
  15.000   0.6563   0.20799   0.15719  -0.0720  1.0000  1.0000  -1.1224   0.0000   0.0000   0.0000   0.3381
  15.500   0.6732   0.21502   0.16469  -0.0750  1.0000  1.0000  -1.1440   0.0000   0.0000   0.0000   0.3392
  16.000   0.6896   0.22231   0.17247  -0.0782  1.0000  1.0000  -1.1620   0.0000   0.0000   0.0000   0.3403
  16.500   0.7054   0.22986   0.18054  -0.0813  1.0000  1.0000  -1.1762   0.0000   0.0000   0.0000   0.3415
  17.000   0.7207   0.23767   0.18889  -0.0845  1.0000  1.0000  -1.1867   0.0000   0.0000   0.0000   0.3427
  17.500   0.7353   0.24573   0.19752  -0.0877  1.0000  1.0000  -1.2087   0.0000   0.0000   0.0000   0.3438
  18.000   0.7493   0.25403   0.20641  -0.0909  1.0000  1.0000  -1.2305   0.0000   0.0000   0.0000   0.3451
  18.500   0.7626   0.26258   0.21555  -0.0940  1.0000  1.0000  -1.2482   0.0000   0.0000   0.0000   0.3463
  19.000   0.7751   0.27135   0.22494  -0.0972  1.0000  1.0000  -1.2616   0.0000   0.0000   0.0000   0.3475
  19.500   0.7868   0.28031   0.23453  -0.1002  1.0000  1.0000  -1.2708   0.0000   0.0000   0.0000   0.3487
  20.000   0.7980   0.28956   0.24582  -0.1031  1.0000  1.0000  -1.2755   0.0000   0.0000   0.0000   0.3497


