xflr5 v6.61

 Calculated polar for: SD7037-092-88

 1 1 Reynolds number fixed          Mach number fixed         

 xtrf =   1.000 (top)        1.000 (bottom)
 Mach =   0.000     Re =     0.100 e 6     Ncrit =   9.000

  alpha     CL        CD       CDp       Cm    Top Xtr Bot Xtr   Cpmin    Chinge    XCp    
 ------- -------- --------- --------- -------- ------- ------- -------- --------- ---------
   0.000   0.2845   0.01670   0.00975  -0.0735  0.9023  1.0000  -0.5317   0.0000   0.0000   0.0000   0.5075
   0.500   0.3639   0.01667   0.00958  -0.0774  0.8777  1.0000  -0.6051   0.0000   0.0000   0.0000   0.4615
   1.000   0.4559   0.01614   0.00891  -0.0827  0.8603  1.0000  -0.6963   0.0000   0.0000   0.0000   0.4297
   1.500   0.5134   0.01583   0.00851  -0.0818  0.8287  1.0000  -0.7688   0.0000   0.0000   0.0000   0.4072
   2.000   0.5717   0.01551   0.00813  -0.0807  0.7964  1.0000  -0.8525   0.0000   0.0000   0.0000   0.3888
   2.500   0.6307   0.01517   0.00774  -0.0797  0.7629  1.0000  -0.9427   0.0000   0.0000   0.0000   0.3735
   3.000   0.6877   0.01494   0.00740  -0.0781  0.7246  1.0000  -1.0453   0.0000   0.0000   0.0000   0.3604
   3.500   0.7421   0.01499   0.00742  -0.0765  0.6837  1.0000  -1.1511   0.0000   0.0000   0.0000   0.3495
   4.000   0.7936   0.01527   0.00752  -0.0746  0.6368  1.0000  -1.2663   0.0000   0.0000   0.0000   0.3399
   4.500   0.8436   0.01577   0.00786  -0.0728  0.5886  1.0000  -1.4083   0.0000   0.0000   0.0000   0.3317
   5.000   0.8918   0.01638   0.00831  -0.0708  0.5373  1.0000  -1.5651   0.0000   0.0000   0.0000   0.3243
   5.500   0.9393   0.01718   0.00897  -0.0688  0.4863  1.0000  -1.7235   0.0000   0.0000   0.0000   0.3177
   6.000   0.9848   0.01807   0.00974  -0.0667  0.4332  1.0000  -2.0033   0.0000   0.0000   0.0000   0.3116
   6.500   1.0296   0.01919   0.01076  -0.0647  0.3827  1.0000  -2.2996   0.0000   0.0000   0.0000   0.3061
   7.000   1.0718   0.02049   0.01247  -0.0623  0.3293  1.0000  -2.7836   0.0000   0.0000   0.0000   0.3008
   7.500   1.1123   0.02206   0.01408  -0.0599  0.2799  1.0000  -3.2961   0.0000   0.0000   0.0000   0.2959
   8.000   1.1515   0.02383   0.01585  -0.0574  0.2366  1.0000  -3.7802   0.0000   0.0000   0.0000   0.2913
   8.500   1.1882   0.02580   0.01785  -0.0548  0.1972  1.0000  -4.2590   0.0000   0.0000   0.0000   0.2869
   9.000   1.2230   0.02820   0.02034  -0.0520  0.1629  1.0000  -4.7211   0.0000   0.0000   0.0000   0.2826
   9.500   1.2485   0.02987   0.02204  -0.0485  0.1287  1.0000  -5.1666   0.0000   0.0000   0.0000   0.2782
  10.000   1.2620   0.03119   0.02329  -0.0441  0.0931  1.0000  -5.5610   0.0000   0.0000   0.0000   0.2735
  10.500   1.2466   0.03588   0.02778  -0.0364  0.0464  1.0000  -5.4508   0.0000   0.0000   0.0000   0.2671
  11.000   1.2427   0.04227   0.03448  -0.0307  0.0351  1.0000  -5.3298   0.0000   0.0000   0.0000   0.2618
  11.500   1.2466   0.04810   0.04086  -0.0269  0.0307  1.0000  -5.3369   0.0000   0.0000   0.0000   0.2580
  12.000   1.2438   0.05492   0.04818  -0.0241  0.0294  1.0000  -5.3686   0.0000   0.0000   0.0000   0.2550
  12.500   1.2274   0.06313   0.05697  -0.0228  0.0292  1.0000  -5.3353   0.0000   0.0000   0.0000   0.2535
  13.000   1.1963   0.07314   0.06755  -0.0243  0.0294  1.0000  -5.2206   0.0000   0.0000   0.0000   0.2544
  13.500   1.1545   0.08610   0.08104  -0.0301  0.0300  1.0000  -5.0184   0.0000   0.0000   0.0000   0.2593
  14.000   1.1017   0.10330   0.09870  -0.0412  0.0310  1.0000  -4.6890   0.0000   0.0000   0.0000   0.2700
  14.500   1.0274   0.13007   0.12562  -0.0601  0.0342  1.0000  -4.0337   0.0000   0.0000   0.0000   0.2911
  15.000   0.9779   0.15574   0.15123  -0.0745  0.0371  1.0000  -3.2928   0.0000   0.0000   0.0000   0.3093
  15.500   0.9625   0.17290   0.16830  -0.0824  0.0385  1.0000  -2.9022   0.0000   0.0000   0.0000   0.3185
  16.500   0.9378   0.21458   0.20989  -0.1006  0.0749  1.0000  -1.8392   0.0000   0.0000   0.0000   0.3405
  17.000   0.9428   0.22596   0.22126  -0.1050  0.0753  1.0000  -1.7537   0.0000   0.0000   0.0000   0.3439
  17.500   0.9491   0.23659   0.23191  -0.1089  0.0724  1.0000  -1.7030   0.0000   0.0000   0.0000   0.3467
  18.000   0.9566   0.24700   0.24235  -0.1121  0.0694  1.0000  -1.6797   0.0000   0.0000   0.0000   0.3485
  18.500   0.9661   0.25723   0.25262  -0.1145  0.0665  1.0000  -1.6932   0.0000   0.0000   0.0000   0.3490
  19.000   0.9822   0.26862   0.26407  -0.1147  0.0636  1.0000  -1.7801   0.0000   0.0000   0.0000   0.3465
  19.500   0.9911   0.28974   0.28521  -0.1156  0.0612  1.0000  -1.7689   0.0000   0.0000   0.0000   0.3458
  20.000   0.9910   0.29986   0.29536  -0.1194  0.0610  1.0000  -1.7049   0.0000   0.0000   0.0000   0.3490


