xflr5 v6.61

 Calculated polar for: SD7032-099-88

 1 1 Reynolds number fixed          Mach number fixed         

 xtrf =   1.000 (top)        1.000 (bottom)
 Mach =   0.000     Re =     0.200 e 6     Ncrit =   9.000

  alpha     CL        CD       CDp       Cm    Top Xtr Bot Xtr   Cpmin    Chinge    XCp    
 ------- -------- --------- --------- -------- ------- ------- -------- --------- ---------
   0.000   0.4456   0.00951   0.00437  -0.0941  0.8030  1.0000  -0.6961   0.0000   0.0000   0.0000   0.4602
   0.500   0.5022   0.00946   0.00403  -0.0937  0.7788  1.0000  -0.7536   0.0000   0.0000   0.0000   0.4350
   1.000   0.5560   0.00947   0.00384  -0.0929  0.7490  1.0000  -0.8156   0.0000   0.0000   0.0000   0.4150
   1.500   0.6100   0.00960   0.00378  -0.0922  0.7175  1.0000  -0.8869   0.0000   0.0000   0.0000   0.3987
   2.000   0.6644   0.00983   0.00378  -0.0916  0.6862  1.0000  -0.9597   0.0000   0.0000   0.0000   0.3849
   2.500   0.7176   0.01012   0.00387  -0.0907  0.6488  1.0000  -1.0392   0.0000   0.0000   0.0000   0.3731
   3.000   0.7700   0.01042   0.00404  -0.0900  0.6129  1.0000  -1.1246   0.0000   0.0000   0.0000   0.3630
   3.500   0.8220   0.01082   0.00428  -0.0892  0.5754  1.0000  -1.2110   0.0000   0.0000   0.0000   0.3542
   4.000   0.8737   0.01134   0.00462  -0.0884  0.5397  1.0000  -1.3066   0.0000   0.0000   0.0000   0.3463
   4.500   0.9239   0.01196   0.00499  -0.0874  0.4988  1.0000  -1.4131   0.0000   0.0000   0.0000   0.3392
   5.000   0.9743   0.01246   0.00544  -0.0866  0.4650  1.0000  -1.5399   0.0000   0.0000   0.0000   0.3329
   5.500   1.0243   0.01310   0.00604  -0.0857  0.4315  1.0000  -1.6972   0.0000   0.0000   0.0000   0.3272
   6.000   1.0726   0.01387   0.00698  -0.0846  0.3963  1.0000  -1.9026   0.0000   0.0000   0.0000   0.3218
   6.500   1.1199   0.01461   0.00764  -0.0834  0.3634  1.0000  -2.1014   0.0000   0.0000   0.0000   0.3168
   7.000   1.1665   0.01531   0.00833  -0.0822  0.3279  1.0000  -2.3059   0.0000   0.0000   0.0000   0.3121
   7.500   1.2044   0.01633   0.00893  -0.0799  0.2641  1.0000  -2.6664   0.0000   0.0000   0.0000   0.3073
   8.000   1.2435   0.01751   0.00979  -0.0780  0.2051  1.0000  -3.0631   0.0000   0.0000   0.0000   0.3029
   8.500   1.2820   0.01880   0.01090  -0.0760  0.1664  1.0000  -3.4783   0.0000   0.0000   0.0000   0.2988
   9.000   1.3178   0.02024   0.01219  -0.0737  0.1308  1.0000  -3.9072   0.0000   0.0000   0.0000   0.2947
   9.500   1.3545   0.02152   0.01382  -0.0713  0.1192  1.0000  -4.2704   0.0000   0.0000   0.0000   0.2907
  10.000   1.3818   0.02321   0.01545  -0.0679  0.0918  1.0000  -4.6915   0.0000   0.0000   0.0000   0.2864
  10.500   1.4016   0.02534   0.01748  -0.0637  0.0639  1.0000  -5.1122   0.0000   0.0000   0.0000   0.2820
  11.000   1.4075   0.02858   0.02047  -0.0588  0.0299  1.0000  -5.4734   0.0000   0.0000   0.0000   0.2775
  11.500   1.4074   0.03253   0.02442  -0.0540  0.0112  1.0000  -5.7864   0.0000   0.0000   0.0000   0.2733
  12.000   1.4058   0.03700   0.02915  -0.0501  0.0075  1.0000  -6.0537   0.0000   0.0000   0.0000   0.2696
  12.500   1.3946   0.04296   0.03563  -0.0472  0.0064  1.0000  -6.2196   0.0000   0.0000   0.0000   0.2669
  13.000   1.3737   0.05071   0.04387  -0.0462  0.0060  1.0000  -6.3034   0.0000   0.0000   0.0000   0.2657
  13.500   1.3528   0.05916   0.05268  -0.0469  0.0059  1.0000  -6.3945   0.0000   0.0000   0.0000   0.2657
  14.000   1.3324   0.06873   0.06263  -0.0490  0.0059  1.0000  -6.4691   0.0000   0.0000   0.0000   0.2669
  14.500   1.3122   0.07910   0.07336  -0.0522  0.0058  1.0000  -6.5173   0.0000   0.0000   0.0000   0.2689
  15.000   1.2921   0.08991   0.08452  -0.0562  0.0058  1.0000  -6.5370   0.0000   0.0000   0.0000   0.2716
  15.500   1.2717   0.10106   0.09602  -0.0610  0.0058  1.0000  -6.5198   0.0000   0.0000   0.0000   0.2751
  16.000   1.2504   0.11257   0.10789  -0.0667  0.0059  1.0000  -6.4562   0.0000   0.0000   0.0000   0.2796
  16.500   1.2265   0.12477   0.12044  -0.0739  0.0059  1.0000  -6.3203   0.0000   0.0000   0.0000   0.2857
  17.000   1.2000   0.13941   0.13542  -0.0827  0.0060  1.0000  -6.0951   0.0000   0.0000   0.0000   0.2936
  17.500   1.1748   0.15575   0.15212  -0.0924  0.0060  1.0000  -5.8370   0.0000   0.0000   0.0000   0.3027
  18.000   1.1542   0.17273   0.16933  -0.1018  0.0062  1.0000  -5.5991   0.0000   0.0000   0.0000   0.3118
  18.500   1.1328   0.19180   0.18859  -0.1115  0.0064  1.0000  -5.2708   0.0000   0.0000   0.0000   0.3217
  19.000   1.1081   0.21428   0.21122  -0.1212  0.0067  1.0000  -4.7631   0.0000   0.0000   0.0000   0.3326
  19.500   1.0556   0.25528   0.25222  -0.1328  0.0087  1.0000  -3.0855   0.0000   0.0000   0.0000   0.3505
  20.000   1.0395   0.27764   0.27455  -0.1381  0.0106  1.0000  -2.4842   0.0000   0.0000   0.0000   0.3576


