xflr5 v6.61

 Calculated polar for: SD7037-092-88

 1 1 Reynolds number fixed          Mach number fixed         

 xtrf =   1.000 (top)        1.000 (bottom)
 Mach =   0.000     Re =     0.030 e 6     Ncrit =   9.000

  alpha     CL        CD       CDp       Cm    Top Xtr Bot Xtr   Cpmin    Chinge    XCp    
 ------- -------- --------- --------- -------- ------- ------- -------- --------- ---------
   0.000   0.0644   0.02499   0.01269  -0.0371  1.0000  1.0000  -0.9398   0.0000   0.0000   0.0000   0.8265
   0.500   0.1022   0.02623   0.01353  -0.0370  1.0000  1.0000  -0.7513   0.0000   0.0000   0.0000   0.6108
   1.000   0.1382   0.02774   0.01475  -0.0371  1.0000  1.0000  -0.5727   0.0000   0.0000   0.0000   0.5163
   1.500   0.1724   0.02954   0.01636  -0.0374  1.0000  1.0000  -0.4908   0.0000   0.0000   0.0000   0.4640
   2.000   0.2047   0.03166   0.01830  -0.0380  1.0000  1.0000  -0.5205   0.0000   0.0000   0.0000   0.4320
   2.500   0.2349   0.03412   0.02064  -0.0387  1.0000  1.0000  -0.5537   0.0000   0.0000   0.0000   0.4111
   3.000   0.2746   0.03727   0.02373  -0.0419  0.9936  1.0000  -0.5914   0.0000   0.0000   0.0000   0.3985
   3.500   0.3870   0.04241   0.02890  -0.0574  0.9324  1.0000  -0.6978   0.0000   0.0000   0.0000   0.3941
   4.000   0.4632   0.04649   0.03312  -0.0652  0.8819  1.0000  -0.7789   0.0000   0.0000   0.0000   0.3864
   4.500   0.5688   0.05051   0.03742  -0.0750  0.8228  1.0000  -0.9125   0.0000   0.0000   0.0000   0.3774
   5.000   0.6106   0.05367   0.04097  -0.0756  0.7739  1.0000  -0.9770   0.0000   0.0000   0.0000   0.3690
   5.500   0.6584   0.05708   0.04458  -0.0765  0.7237  1.0000  -1.0657   0.0000   0.0000   0.0000   0.3610
   6.000   0.7052   0.06080   0.04854  -0.0769  0.6748  1.0000  -1.1630   0.0000   0.0000   0.0000   0.3535
   6.500   0.7483   0.06484   0.05283  -0.0765  0.6277  1.0000  -1.2713   0.0000   0.0000   0.0000   0.3464
   7.000   0.7900   0.06921   0.05747  -0.0757  0.5832  1.0000  -1.3755   0.0000   0.0000   0.0000   0.3396
   7.500   0.8356   0.07341   0.06200  -0.0742  0.5387  1.0000  -1.5537   0.0000   0.0000   0.0000   0.3321
   8.000   0.8106   0.08237   0.07099  -0.0746  0.5190  1.0000  -1.5181   0.0000   0.0000   0.0000   0.3349
   8.500   0.8346   0.08795   0.07679  -0.0729  0.4773  1.0000  -1.6653   0.0000   0.0000   0.0000   0.3297
   9.000   0.8335   0.09681   0.08579  -0.0744  0.4629  1.0000  -1.6939   0.0000   0.0000   0.0000   0.3312
   9.500   0.8270   0.10688   0.09598  -0.0771  0.4603  1.0000  -1.6870   0.0000   0.0000   0.0000   0.3348
  10.000   0.7889   0.11945   0.10857  -0.0840  0.5110  1.0000  -1.5348   0.0000   0.0000   0.0000   0.3475
  10.500   0.7802   0.13492   0.12419  -0.0938  0.6008  1.0000  -1.4640   0.0000   0.0000   0.0000   0.3607
  11.000   0.7786   0.14274   0.13208  -0.0947  0.5916  1.0000  -1.4766   0.0000   0.0000   0.0000   0.3617
  11.500   0.7823   0.14595   0.13545  -0.0943  0.5588  1.0000  -1.5112   0.0000   0.0000   0.0000   0.3600
  12.000   0.7898   0.15187   0.14148  -0.0944  0.5224  1.0000  -1.5486   0.0000   0.0000   0.0000   0.3585
  12.500   0.8501   0.17375   0.16370  -0.0985  0.4949  1.0000  -1.6910   0.0000   0.0000   0.0000   0.3545
  13.000   0.8203   0.16708   0.15700  -0.0970  0.4680  1.0000  -1.6262   0.0000   0.0000   0.0000   0.3562
  13.500   0.8590   0.18538   0.17630  -0.0993  0.4433  1.0000  -1.8742   0.0000   0.0000   0.0000   0.3532
  14.000   0.9150   0.20928   0.20062  -0.1004  0.3980  1.0000  -2.1152   0.0000   0.0000   0.0000   0.3470
  14.500   0.8644   0.19321   0.18434  -0.1011  0.3869  1.0000  -1.9461   0.0000   0.0000   0.0000   0.3534
  15.000   0.8881   0.20371   0.19506  -0.1021  0.3591  1.0000  -2.0232   0.0000   0.0000   0.0000   0.3509
  15.500   0.8944   0.21427   0.20564  -0.1045  0.3443  1.0000  -1.9991   0.0000   0.0000   0.0000   0.3521
  16.000   0.9391   0.23904   0.23062  -0.1042  0.3036  1.0000  -2.0582   0.0000   0.0000   0.0000   0.3460
  16.500   0.9061   0.22824   0.21969  -0.1080  0.2907  1.0000  -1.9171   0.0000   0.0000   0.0000   0.3532
  17.000   0.9404   0.24610   0.23774  -0.1077  0.2652  1.0000  -1.9004   0.0000   0.0000   0.0000   0.3481
  17.500   0.9388   0.25650   0.24806  -0.1110  0.2573  1.0000  -1.7899   0.0000   0.0000   0.0000   0.3511
  18.000   0.9771   0.28020   0.27187  -0.1100  0.2190  1.0000  -1.8070   0.0000   0.0000   0.0000   0.3450
  18.500   0.9460   0.27260   0.26419  -0.1147  0.2147  1.0000  -1.6624   0.0000   0.0000   0.0000   0.3528
  19.000   0.9402   0.27770   0.26932  -0.1180  0.2006  1.0000  -1.5789   0.0000   0.0000   0.0000   0.3563
  19.500   0.9510   0.28931   0.28104  -0.1189  0.1891  1.0000  -1.5613   0.0000   0.0000   0.0000   0.3552
  20.000   1.0044   0.32603   0.31787  -0.1191  0.1809  1.0000  -1.6533   0.0000   0.0000   0.0000   0.3482


