xflr5 v6.61

 Calculated polar for: SD7032-099-88

 1 1 Reynolds number fixed          Mach number fixed         

 xtrf =   1.000 (top)        1.000 (bottom)
 Mach =   0.000     Re =     0.030 e 6     Ncrit =   9.000

  alpha     CL        CD       CDp       Cm    Top Xtr Bot Xtr   Cpmin    Chinge    XCp    
 ------- -------- --------- --------- -------- ------- ------- -------- --------- ---------
   0.000   0.0749   0.02844   0.01741  -0.0486  1.0000  1.0000  -1.2585   0.0000   0.0000   0.0000   0.8995
   0.500   0.1135   0.03010   0.01844  -0.0493  1.0000  1.0000  -1.0018   0.0000   0.0000   0.0000   0.6833
   1.000   0.1499   0.03204   0.01971  -0.0501  1.0000  1.0000  -0.7449   0.0000   0.0000   0.0000   0.5820
   1.500   0.1837   0.03432   0.02164  -0.0509  1.0000  1.0000  -0.5604   0.0000   0.0000   0.0000   0.5245
   2.000   0.2157   0.03692   0.02398  -0.0519  1.0000  1.0000  -0.5375   0.0000   0.0000   0.0000   0.4874
   2.500   0.2732   0.04065   0.02746  -0.0580  0.9858  1.0000  -0.5813   0.0000   0.0000   0.0000   0.4585
   3.000   0.3609   0.04524   0.03188  -0.0689  0.9383  1.0000  -0.6554   0.0000   0.0000   0.0000   0.4370
   3.500   0.4503   0.05000   0.03656  -0.0787  0.8925  1.0000  -0.7333   0.0000   0.0000   0.0000   0.4205
   4.000   0.5027   0.05372   0.04032  -0.0822  0.8536  1.0000  -0.7903   0.0000   0.0000   0.0000   0.4091
   4.500   0.5548   0.05733   0.04413  -0.0850  0.8097  1.0000  -0.8493   0.0000   0.0000   0.0000   0.3983
   5.000   0.6120   0.06182   0.04870  -0.0887  0.7762  1.0000  -0.9110   0.0000   0.0000   0.0000   0.3896
   5.500   0.6649   0.06560   0.05260  -0.0903  0.7331  1.0000  -0.9860   0.0000   0.0000   0.0000   0.3802
   6.000   0.6846   0.07014   0.05728  -0.0901  0.7047  1.0000  -1.0158   0.0000   0.0000   0.0000   0.3755
   6.500   0.7068   0.07524   0.06250  -0.0899  0.6738  1.0000  -1.0582   0.0000   0.0000   0.0000   0.3707
   7.000   0.7541   0.08012   0.06759  -0.0908  0.6363  1.0000  -1.1420   0.0000   0.0000   0.0000   0.3635
   7.500   0.7474   0.08709   0.07469  -0.0911  0.6257  1.0000  -1.1406   0.0000   0.0000   0.0000   0.3644
   8.000   0.7902   0.09263   0.08045  -0.0914  0.5875  1.0000  -1.2376   0.0000   0.0000   0.0000   0.3578
   8.500   0.7816   0.10019   0.08815  -0.0923  0.5802  1.0000  -1.2258   0.0000   0.0000   0.0000   0.3597
   9.000   0.8062   0.11185   0.10006  -0.0973  0.5945  1.0000  -1.2755   0.0000   0.0000   0.0000   0.3619
   9.500   0.8423   0.11758   0.10604  -0.0962  0.5460  1.0000  -1.3904   0.0000   0.0000   0.0000   0.3548
  10.000   0.7587   0.13059   0.11903  -0.1045  0.6896  1.0000  -1.1680   0.0000   0.0000   0.0000   0.3776
  10.500   0.7736   0.13488   0.12355  -0.1046  0.6547  1.0000  -1.2130   0.0000   0.0000   0.0000   0.3746
  11.000   0.7769   0.14059   0.12940  -0.1049  0.6325  1.0000  -1.2260   0.0000   0.0000   0.0000   0.3739
  11.500   0.8166   0.15226   0.14199  -0.1073  0.5926  1.0000  -1.3017   0.0000   0.0000   0.0000   0.3699
  12.000   0.8359   0.15765   0.14767  -0.1079  0.5570  1.0000  -1.3502   0.0000   0.0000   0.0000   0.3670
  12.500   0.8379   0.16426   0.15440  -0.1091  0.5390  1.0000  -1.4122   0.0000   0.0000   0.0000   0.3674
  13.000   0.8881   0.18197   0.17243  -0.1114  0.4971  1.0000  -1.6438   0.0000   0.0000   0.0000   0.3623
  13.500   0.8669   0.17616   0.16665  -0.1107  0.4685  1.0000  -1.6185   0.0000   0.0000   0.0000   0.3638
  14.000   0.9302   0.20546   0.19630  -0.1149  0.4493  1.0000  -1.8594   0.0000   0.0000   0.0000   0.3592
  14.500   0.8906   0.19188   0.18263  -0.1144  0.4258  1.0000  -1.7592   0.0000   0.0000   0.0000   0.3634
  15.000   0.9347   0.21317   0.20419  -0.1160  0.3992  1.0000  -1.9379   0.0000   0.0000   0.0000   0.3585
  15.500   0.9173   0.20883   0.19984  -0.1178  0.3762  1.0000  -1.8923   0.0000   0.0000   0.0000   0.3620
  16.000   1.0011   0.25272   0.24420  -0.1199  0.3550  1.0000  -2.1637   0.0000   0.0000   0.0000   0.3530
  16.500   0.9560   0.23651   0.22783  -0.1221  0.3507  1.0000  -2.0126   0.0000   0.0000   0.0000   0.3600
  17.000   0.9500   0.23731   0.22871  -0.1243  0.3255  1.0000  -1.9783   0.0000   0.0000   0.0000   0.3623
  17.500   0.9769   0.25702   0.24856  -0.1252  0.3059  1.0000  -2.0128   0.0000   0.0000   0.0000   0.3591
  18.000   0.9638   0.25740   0.24899  -0.1283  0.2862  1.0000  -1.9187   0.0000   0.0000   0.0000   0.3631
  18.500   1.0190   0.29365   0.28544  -0.1280  0.2652  1.0000  -1.9027   0.0000   0.0000   0.0000   0.3554
  19.000   0.9768   0.28222   0.27395  -0.1317  0.2576  1.0000  -1.7343   0.0000   0.0000   0.0000   0.3636
  19.500   1.0233   0.31227   0.30446  -0.1306  0.2241  1.0000  -1.7096   0.0000   0.0000   0.0000   0.3558
  20.000   0.9788   0.30397   0.29614  -0.1335  0.2189  1.0000  -1.5368   0.0000   0.0000   0.0000   0.3638


