xflr5 v6.61

 Calculated polar for: SD7037-092-88

 1 1 Reynolds number fixed          Mach number fixed         

 xtrf =   1.000 (top)        1.000 (bottom)
 Mach =   0.000     Re =     0.200 e 6     Ncrit =   9.000

  alpha     CL        CD       CDp       Cm    Top Xtr Bot Xtr   Cpmin    Chinge    XCp    
 ------- -------- --------- --------- -------- ------- ------- -------- --------- ---------
   0.000   0.3833   0.00933   0.00426  -0.0832  0.8586  1.0000  -0.6086   0.0000   0.0000   0.0000   0.4660
   0.500   0.4338   0.00915   0.00390  -0.0813  0.8293  1.0000  -0.6657   0.0000   0.0000   0.0000   0.4361
   1.000   0.4859   0.00907   0.00366  -0.0799  0.7971  1.0000  -0.7330   0.0000   0.0000   0.0000   0.4126
   1.500   0.5389   0.00908   0.00348  -0.0786  0.7618  1.0000  -0.8032   0.0000   0.0000   0.0000   0.3937
   2.000   0.5915   0.00921   0.00340  -0.0773  0.7216  1.0000  -0.8858   0.0000   0.0000   0.0000   0.3782
   2.500   0.6437   0.00947   0.00346  -0.0762  0.6804  1.0000  -0.9701   0.0000   0.0000   0.0000   0.3654
   3.000   0.6950   0.00983   0.00360  -0.0749  0.6354  1.0000  -1.0701   0.0000   0.0000   0.0000   0.3544
   3.500   0.7461   0.01026   0.00388  -0.0738  0.5925  1.0000  -1.1728   0.0000   0.0000   0.0000   0.3451
   4.000   0.7960   0.01076   0.00415  -0.0725  0.5447  1.0000  -1.2880   0.0000   0.0000   0.0000   0.3369
   4.500   0.8456   0.01133   0.00453  -0.0713  0.4986  1.0000  -1.4329   0.0000   0.0000   0.0000   0.3296
   5.000   0.8941   0.01195   0.00497  -0.0700  0.4496  1.0000  -1.5922   0.0000   0.0000   0.0000   0.3231
   5.500   0.9423   0.01264   0.00553  -0.0687  0.4039  1.0000  -1.7547   0.0000   0.0000   0.0000   0.3172
   6.000   0.9882   0.01347   0.00614  -0.0672  0.3494  1.0000  -2.0300   0.0000   0.0000   0.0000   0.3117
   6.500   1.0323   0.01432   0.00672  -0.0656  0.2835  1.0000  -2.4095   0.0000   0.0000   0.0000   0.3066
   7.000   1.0784   0.01553   0.00838  -0.0641  0.2588  1.0000  -2.9544   0.0000   0.0000   0.0000   0.3020
   7.500   1.1213   0.01670   0.00952  -0.0624  0.2160  1.0000  -3.4760   0.0000   0.0000   0.0000   0.2975
   8.000   1.1626   0.01796   0.01073  -0.0605  0.1775  1.0000  -3.9994   0.0000   0.0000   0.0000   0.2933
   8.500   1.2030   0.01909   0.01176  -0.0588  0.1357  1.0000  -4.5474   0.0000   0.0000   0.0000   0.2894
   9.000   1.2412   0.02048   0.01312  -0.0567  0.1052  1.0000  -5.0844   0.0000   0.0000   0.0000   0.2856
   9.500   1.2691   0.02281   0.01495  -0.0537  0.0442  1.0000  -5.4585   0.0000   0.0000   0.0000   0.2815
  10.000   1.2677   0.02737   0.01966  -0.0457  0.0186  1.0000  -5.3350   0.0000   0.0000   0.0000   0.2745
  10.500   1.2729   0.03092   0.02356  -0.0397  0.0171  1.0000  -5.4931   0.0000   0.0000   0.0000   0.2689
  11.000   1.2754   0.03523   0.02831  -0.0346  0.0161  1.0000  -5.6078   0.0000   0.0000   0.0000   0.2641
  11.500   1.2795   0.04022   0.03371  -0.0304  0.0160  1.0000  -5.7368   0.0000   0.0000   0.0000   0.2600
  12.000   1.2799   0.04632   0.04033  -0.0270  0.0164  1.0000  -5.8157   0.0000   0.0000   0.0000   0.2566
  12.500   1.2684   0.05398   0.04859  -0.0248  0.0169  1.0000  -5.8061   0.0000   0.0000   0.0000   0.2542
  13.000   1.2422   0.06325   0.05842  -0.0248  0.0174  1.0000  -5.7177   0.0000   0.0000   0.0000   0.2538
  13.500   1.2078   0.07469   0.07037  -0.0282  0.0178  1.0000  -5.5725   0.0000   0.0000   0.0000   0.2564
  14.000   1.1673   0.08866   0.08479  -0.0355  0.0182  1.0000  -5.3634   0.0000   0.0000   0.0000   0.2626
  14.500   1.1235   0.10534   0.10185  -0.0464  0.0184  1.0000  -5.0780   0.0000   0.0000   0.0000   0.2728
  15.000   1.0739   0.12585   0.12265  -0.0608  0.0187  1.0000  -4.6386   0.0000   0.0000   0.0000   0.2878
  15.500   1.0060   0.15643   0.15327  -0.0793  0.0199  1.0000  -3.6862   0.0000   0.0000   0.0000   0.3106
  16.000   0.9765   0.17955   0.17630  -0.0898  0.0219  1.0000  -2.9818   0.0000   0.0000   0.0000   0.3239
  17.000   0.9601   0.22163   0.21833  -0.1009  0.0409  1.0000  -2.0472   0.0000   0.0000   0.0000   0.3370
  17.500   0.9659   0.23407   0.23078  -0.1053  0.0408  1.0000  -1.9715   0.0000   0.0000   0.0000   0.3403
  18.000   0.9716   0.24616   0.24288  -0.1096  0.0407  1.0000  -1.9042   0.0000   0.0000   0.0000   0.3436
  18.500   0.9768   0.25766   0.25439  -0.1140  0.0405  1.0000  -1.8427   0.0000   0.0000   0.0000   0.3468
  19.000   0.9812   0.26766   0.26440  -0.1187  0.0397  1.0000  -1.7795   0.0000   0.0000   0.0000   0.3504
  19.500   0.9803   0.27787   0.27462  -0.1251  0.0359  1.0000  -1.6456   0.0000   0.0000   0.0000   0.3565
  20.000   0.9821   0.28903   0.28580  -0.1287  0.0330  1.0000  -1.6030   0.0000   0.0000   0.0000   0.3592


