xflr5 v6.61

 Calculated polar for: SD7062 (14%)

 1 1 Reynolds number fixed          Mach number fixed         

 xtrf =   1.000 (top)        1.000 (bottom)
 Mach =   0.000     Re =     0.001 e 6     Ncrit =   9.000

  alpha     CL        CD       CDp       Cm    Top Xtr Bot Xtr   Cpmin    Chinge    XCp    
 ------- -------- --------- --------- -------- ------- ------- -------- --------- ---------
   0.000  -0.0026   0.17904   0.07256  -0.0284  1.0000  1.0000  -0.7277   0.0000   0.0000   0.0000  -10.9971
   0.500   0.0206   0.17916   0.07132  -0.0277  1.0000  1.0000  -0.6453   0.0000   0.0000   0.0000   1.6221
   1.000   0.0443   0.17954   0.07040  -0.0270  1.0000  1.0000  -0.5647   0.0000   0.0000   0.0000   0.8669
   1.500   0.0686   0.18012   0.06915  -0.0263  1.0000  1.0000  -0.5704   0.0000   0.0000   0.0000   0.6346
   2.000   0.0930   0.18093   0.06873  -0.0257  1.0000  1.0000  -0.5897   0.0000   0.0000   0.0000   0.5237
   2.500   0.1175   0.18197   0.06866  -0.0251  1.0000  1.0000  -0.6083   0.0000   0.0000   0.0000   0.4595
   3.000   0.1421   0.18326   0.06894  -0.0247  1.0000  1.0000  -0.6263   0.0000   0.0000   0.0000   0.4179
   3.500   0.1667   0.18480   0.06958  -0.0243  1.0000  1.0000  -0.6481   0.0000   0.0000   0.0000   0.3892
   4.000   0.1912   0.18657   0.07057  -0.0241  1.0000  1.0000  -0.6701   0.0000   0.0000   0.0000   0.3685
   4.500   0.2155   0.18856   0.07191  -0.0240  1.0000  1.0000  -0.6910   0.0000   0.0000   0.0000   0.3531
   5.000   0.2395   0.19076   0.07357  -0.0240  1.0000  1.0000  -0.7108   0.0000   0.0000   0.0000   0.3413
   5.500   0.2632   0.19318   0.07558  -0.0241  1.0000  1.0000  -0.7315   0.0000   0.0000   0.0000   0.3321
   6.000   0.2867   0.19583   0.07793  -0.0244  1.0000  1.0000  -0.7557   0.0000   0.0000   0.0000   0.3250
   6.500   0.3098   0.19867   0.08061  -0.0248  1.0000  1.0000  -0.7786   0.0000   0.0000   0.0000   0.3194
   7.000   0.3324   0.20170   0.08404  -0.0254  1.0000  1.0000  -0.7999   0.0000   0.0000   0.0000   0.3151
   7.500   0.3549   0.20494   0.08715  -0.0260  1.0000  1.0000  -0.8197   0.0000   0.0000   0.0000   0.3116
   8.000   0.3769   0.20839   0.09055  -0.0268  1.0000  1.0000  -0.8425   0.0000   0.0000   0.0000   0.3088
   8.500   0.3986   0.21203   0.09426  -0.0277  1.0000  1.0000  -0.8670   0.0000   0.0000   0.0000   0.3066
   9.000   0.4199   0.21588   0.09827  -0.0287  1.0000  1.0000  -0.8897   0.0000   0.0000   0.0000   0.3049
   9.500   0.4407   0.21992   0.10257  -0.0298  1.0000  1.0000  -0.9106   0.0000   0.0000   0.0000   0.3037
  10.000   0.4611   0.22416   0.10716  -0.0311  1.0000  1.0000  -0.9296   0.0000   0.0000   0.0000   0.3029
  10.500   0.4811   0.22860   0.11204  -0.0325  1.0000  1.0000  -0.9523   0.0000   0.0000   0.0000   0.3024
  11.000   0.5006   0.23324   0.11719  -0.0340  1.0000  1.0000  -0.9768   0.0000   0.0000   0.0000   0.3022
  11.500   0.5196   0.23806   0.12261  -0.0356  1.0000  1.0000  -0.9992   0.0000   0.0000   0.0000   0.3023
  12.000   0.5381   0.24307   0.12828  -0.0374  1.0000  1.0000  -1.0195   0.0000   0.0000   0.0000   0.3025
  12.500   0.5562   0.24826   0.13420  -0.0392  1.0000  1.0000  -1.0376   0.0000   0.0000   0.0000   0.3030
  13.000   0.5741   0.25367   0.14158  -0.0410  1.0000  1.0000  -1.0575   0.0000   0.0000   0.0000   0.3034
  13.500   0.5908   0.25919   0.14784  -0.0431  1.0000  1.0000  -1.0824   0.0000   0.0000   0.0000   0.3043
  14.000   0.6071   0.26491   0.15436  -0.0453  1.0000  1.0000  -1.1046   0.0000   0.0000   0.0000   0.3053
  14.500   0.6228   0.27082   0.16115  -0.0476  1.0000  1.0000  -1.1240   0.0000   0.0000   0.0000   0.3063
  15.000   0.6380   0.27693   0.16820  -0.0499  1.0000  1.0000  -1.1407   0.0000   0.0000   0.0000   0.3075
  15.500   0.6526   0.28322   0.17550  -0.0523  1.0000  1.0000  -1.1545   0.0000   0.0000   0.0000   0.3087
  16.000   0.6665   0.28970   0.18303  -0.0547  1.0000  1.0000  -1.1743   0.0000   0.0000   0.0000   0.3099
  16.500   0.6797   0.29633   0.19078  -0.0572  1.0000  1.0000  -1.1953   0.0000   0.0000   0.0000   0.3112
  17.000   0.6923   0.30312   0.19873  -0.0597  1.0000  1.0000  -1.2130   0.0000   0.0000   0.0000   0.3125
  17.500   0.7040   0.31003   0.20685  -0.0622  1.0000  1.0000  -1.2274   0.0000   0.0000   0.0000   0.3139
  18.000   0.7150   0.31703   0.21510  -0.0646  1.0000  1.0000  -1.2382   0.0000   0.0000   0.0000   0.3153
  18.500   0.7251   0.32410   0.22346  -0.0671  1.0000  1.0000  -1.2455   0.0000   0.0000   0.0000   0.3167
  19.000   0.7342   0.33119   0.23188  -0.0695  1.0000  1.0000  -1.2542   0.0000   0.0000   0.0000   0.3181
  19.500   0.7425   0.33826   0.24030  -0.0719  1.0000  1.0000  -1.2697   0.0000   0.0000   0.0000   0.3195
  20.000   0.7504   0.34534   0.25099  -0.0739  1.0000  1.0000  -1.2843   0.0000   0.0000   0.0000   0.3206


