xflr5 v6.61

 Calculated polar for: SD7032-099-88

 1 1 Reynolds number fixed          Mach number fixed         

 xtrf =   1.000 (top)        1.000 (bottom)
 Mach =   0.000     Re =     0.130 e 6     Ncrit =   9.000

  alpha     CL        CD       CDp       Cm    Top Xtr Bot Xtr   Cpmin    Chinge    XCp    
 ------- -------- --------- --------- -------- ------- ------- -------- --------- ---------
   0.000   0.4288   0.01365   0.00756  -0.0959  0.8357  1.0000  -0.6773   0.0000   0.0000   0.0000   0.4728
   0.500   0.4905   0.01335   0.00702  -0.0959  0.8147  1.0000  -0.7378   0.0000   0.0000   0.0000   0.4441
   1.000   0.5481   0.01305   0.00652  -0.0952  0.7892  1.0000  -0.8018   0.0000   0.0000   0.0000   0.4217
   1.500   0.6022   0.01304   0.00636  -0.0941  0.7606  1.0000  -0.8727   0.0000   0.0000   0.0000   0.4039
   2.000   0.6589   0.01294   0.00605  -0.0932  0.7313  1.0000  -0.9478   0.0000   0.0000   0.0000   0.3886
   2.500   0.7135   0.01300   0.00600  -0.0922  0.6992  1.0000  -1.0272   0.0000   0.0000   0.0000   0.3759
   3.000   0.7653   0.01323   0.00611  -0.0910  0.6628  1.0000  -1.1115   0.0000   0.0000   0.0000   0.3651
   3.500   0.8178   0.01358   0.00630  -0.0899  0.6261  1.0000  -1.1978   0.0000   0.0000   0.0000   0.3557
   4.000   0.8698   0.01403   0.00653  -0.0888  0.5878  1.0000  -1.2933   0.0000   0.0000   0.0000   0.3473
   4.500   0.9216   0.01467   0.00691  -0.0878  0.5488  1.0000  -1.4000   0.0000   0.0000   0.0000   0.3400
   5.000   0.9704   0.01515   0.00738  -0.0864  0.5117  1.0000  -1.5233   0.0000   0.0000   0.0000   0.3332
   5.500   1.0194   0.01588   0.00808  -0.0852  0.4747  1.0000  -1.6749   0.0000   0.0000   0.0000   0.3272
   6.000   1.0685   0.01678   0.00926  -0.0841  0.4402  1.0000  -1.8777   0.0000   0.0000   0.0000   0.3217
   6.500   1.1162   0.01779   0.01009  -0.0828  0.4023  1.0000  -2.0744   0.0000   0.0000   0.0000   0.3166
   7.000   1.1615   0.01845   0.01092  -0.0812  0.3713  1.0000  -2.2722   0.0000   0.0000   0.0000   0.3117
   7.500   1.2060   0.01952   0.01200  -0.0796  0.3371  1.0000  -2.6528   0.0000   0.0000   0.0000   0.3071
   8.000   1.2472   0.02061   0.01300  -0.0776  0.3006  1.0000  -3.0522   0.0000   0.0000   0.0000   0.3026
   8.500   1.2796   0.02122   0.01344  -0.0744  0.2489  1.0000  -3.4510   0.0000   0.0000   0.0000   0.2978
   9.000   1.3071   0.02261   0.01444  -0.0711  0.1929  1.0000  -3.8441   0.0000   0.0000   0.0000   0.2932
   9.500   1.3427   0.02410   0.01640  -0.0686  0.1719  1.0000  -4.2014   0.0000   0.0000   0.0000   0.2892
  10.000   1.3676   0.02590   0.01818  -0.0650  0.1404  1.0000  -4.5857   0.0000   0.0000   0.0000   0.2849
  10.500   1.3859   0.02802   0.02031  -0.0608  0.1150  1.0000  -4.9692   0.0000   0.0000   0.0000   0.2804
  11.000   1.3985   0.03066   0.02296  -0.0565  0.0914  1.0000  -5.3369   0.0000   0.0000   0.0000   0.2761
  11.500   1.4062   0.03396   0.02617  -0.0528  0.0585  1.0000  -5.6972   0.0000   0.0000   0.0000   0.2724
  12.000   1.4007   0.03870   0.03089  -0.0490  0.0328  1.0000  -5.9422   0.0000   0.0000   0.0000   0.2690
  12.500   1.3809   0.04551   0.03778  -0.0460  0.0177  1.0000  -6.0326   0.0000   0.0000   0.0000   0.2664
  13.000   1.3551   0.05388   0.04652  -0.0451  0.0141  1.0000  -6.0503   0.0000   0.0000   0.0000   0.2654
  13.500   1.3326   0.06267   0.05575  -0.0461  0.0130  1.0000  -6.1076   0.0000   0.0000   0.0000   0.2657
  14.000   1.3098   0.07277   0.06626  -0.0487  0.0122  1.0000  -6.1380   0.0000   0.0000   0.0000   0.2673
  14.500   1.2873   0.08366   0.07753  -0.0525  0.0116  1.0000  -6.1462   0.0000   0.0000   0.0000   0.2700
  15.000   1.2663   0.09472   0.08895  -0.0570  0.0112  1.0000  -6.1399   0.0000   0.0000   0.0000   0.2732
  15.500   1.2476   0.10557   0.10015  -0.0618  0.0109  1.0000  -6.1228   0.0000   0.0000   0.0000   0.2768
  16.000   1.2282   0.11665   0.11159  -0.0675  0.0107  1.0000  -6.0619   0.0000   0.0000   0.0000   0.2814
  16.500   1.2067   0.12892   0.12422  -0.0745  0.0107  1.0000  -5.9327   0.0000   0.0000   0.0000   0.2874
  17.000   1.1805   0.14420   0.13985  -0.0835  0.0108  1.0000  -5.6900   0.0000   0.0000   0.0000   0.2957
  17.500   1.1465   0.16400   0.15998  -0.0948  0.0113  1.0000  -5.2589   0.0000   0.0000   0.0000   0.3074
  18.000   1.1021   0.19071   0.18693  -0.1080  0.0123  1.0000  -4.4985   0.0000   0.0000   0.0000   0.3230
  18.500   1.0627   0.22030   0.21652  -0.1193  0.0135  1.0000  -3.5615   0.0000   0.0000   0.0000   0.3378
  19.000   1.0468   0.24174   0.23791  -0.1259  0.0140  1.0000  -3.0468   0.0000   0.0000   0.0000   0.3457
  19.500   1.0375   0.25983   0.25597  -0.1307  0.0146  1.0000  -2.7169   0.0000   0.0000   0.0000   0.3511
  20.000   1.0365   0.27366   0.26987  -0.1338  0.0156  1.0000  -2.5811   0.0000   0.0000   0.0000   0.3536


