xflr5 v6.61

 Calculated polar for: SD7032-099-88

 1 1 Reynolds number fixed          Mach number fixed         

 xtrf =   1.000 (top)        1.000 (bottom)
 Mach =   0.000     Re =     0.060 e 6     Ncrit =   9.000

  alpha     CL        CD       CDp       Cm    Top Xtr Bot Xtr   Cpmin    Chinge    XCp    
 ------- -------- --------- --------- -------- ------- ------- -------- --------- ---------
   0.000   0.2401   0.02526   0.01683  -0.0771  0.9225  1.0000  -0.7698   0.0000   0.0000   0.0000   0.5708
   0.500   0.3296   0.02642   0.01756  -0.0840  0.8945  1.0000  -0.6016   0.0000   0.0000   0.0000   0.5036
   1.000   0.4031   0.02712   0.01798  -0.0875  0.8630  1.0000  -0.6664   0.0000   0.0000   0.0000   0.4654
   1.500   0.4658   0.02789   0.01858  -0.0892  0.8310  1.0000  -0.7282   0.0000   0.0000   0.0000   0.4393
   2.000   0.5324   0.02842   0.01901  -0.0908  0.7985  1.0000  -0.8040   0.0000   0.0000   0.0000   0.4178
   2.500   0.6107   0.02857   0.01912  -0.0934  0.7724  1.0000  -0.8923   0.0000   0.0000   0.0000   0.3998
   3.000   0.6897   0.02773   0.01838  -0.0945  0.7441  1.0000  -0.9962   0.0000   0.0000   0.0000   0.3835
   3.500   0.7401   0.02832   0.01898  -0.0930  0.7095  1.0000  -1.0743   0.0000   0.0000   0.0000   0.3717
   4.000   0.8058   0.02802   0.01870  -0.0923  0.6795  1.0000  -1.1728   0.0000   0.0000   0.0000   0.3601
   4.500   0.8814   0.02677   0.01739  -0.0916  0.6489  1.0000  -1.3049   0.0000   0.0000   0.0000   0.3491
   5.000   0.9274   0.02743   0.01813  -0.0892  0.6098  1.0000  -1.4129   0.0000   0.0000   0.0000   0.3407
   5.500   0.9766   0.02823   0.01901  -0.0871  0.5720  1.0000  -1.5453   0.0000   0.0000   0.0000   0.3332
   6.000   1.0310   0.02893   0.01972  -0.0854  0.5362  1.0000  -1.7196   0.0000   0.0000   0.0000   0.3263
   6.500   1.0898   0.02934   0.02060  -0.0837  0.4986  1.0000  -1.9432   0.0000   0.0000   0.0000   0.3197
   7.000   1.1302   0.03072   0.02227  -0.0812  0.4626  1.0000  -2.1157   0.0000   0.0000   0.0000   0.3141
   7.500   1.1709   0.03253   0.02426  -0.0787  0.4253  1.0000  -2.4084   0.0000   0.0000   0.0000   0.3088
   8.000   1.2154   0.03435   0.02617  -0.0765  0.3899  1.0000  -2.7918   0.0000   0.0000   0.0000   0.3038
   8.500   1.2620   0.03584   0.02760  -0.0742  0.3513  1.0000  -3.2119   0.0000   0.0000   0.0000   0.2990
   9.000   1.3018   0.03726   0.02914  -0.0713  0.3145  1.0000  -3.6167   0.0000   0.0000   0.0000   0.2942
   9.500   1.3307   0.03936   0.03149  -0.0675  0.2775  1.0000  -3.9775   0.0000   0.0000   0.0000   0.2894
  10.000   1.3549   0.04249   0.03516  -0.0634  0.2391  1.0000  -4.2298   0.0000   0.0000   0.0000   0.2847
  10.500   1.3732   0.04571   0.03856  -0.0590  0.2054  1.0000  -4.5340   0.0000   0.0000   0.0000   0.2800
  11.000   1.3890   0.05108   0.04414  -0.0550  0.1806  1.0000  -4.7958   0.0000   0.0000   0.0000   0.2760
  11.500   1.3767   0.05670   0.05032  -0.0490  0.1652  1.0000  -4.8932   0.0000   0.0000   0.0000   0.2713
  12.000   1.3716   0.05997   0.05361  -0.0440  0.1422  1.0000  -5.1113   0.0000   0.0000   0.0000   0.2668
  12.500   1.3624   0.05970   0.05299  -0.0397  0.1133  1.0000  -5.4228   0.0000   0.0000   0.0000   0.2628
  13.000   1.3371   0.06362   0.05683  -0.0379  0.0948  1.0000  -5.5655   0.0000   0.0000   0.0000   0.2610
  13.500   1.3021   0.07280   0.06641  -0.0388  0.0839  1.0000  -5.5158   0.0000   0.0000   0.0000   0.2615
  14.000   1.2705   0.08182   0.07551  -0.0426  0.0714  1.0000  -5.5251   0.0000   0.0000   0.0000   0.2642
  14.500   1.2372   0.09389   0.08781  -0.0473  0.0632  1.0000  -5.3897   0.0000   0.0000   0.0000   0.2680
  15.000   1.1962   0.10934   0.10374  -0.0551  0.0626  1.0000  -5.1160   0.0000   0.0000   0.0000   0.2752
  18.000   0.9899   0.25290   0.24699  -0.1234  0.1450  1.0000  -1.8163   0.0000   0.0000   0.0000   0.3543
  18.500   1.0174   0.24935   0.24368  -0.1185  0.0641  1.0000  -2.1929   0.0000   0.0000   0.0000   0.3443
  19.000   1.0087   0.26344   0.25774  -0.1245  0.0618  1.0000  -1.9782   0.0000   0.0000   0.0000   0.3508
  19.500   1.0260   0.29067   0.28508  -0.1249  0.0904  1.0000  -1.8005   0.0000   0.0000   0.0000   0.3489
  20.000   1.0142   0.30065   0.29508  -0.1290  0.0898  1.0000  -1.6749   0.0000   0.0000   0.0000   0.3537


