xflr5 v6.61

 Calculated polar for: SD7037-092-88

 1 1 Reynolds number fixed          Mach number fixed         

 xtrf =   1.000 (top)        1.000 (bottom)
 Mach =   0.000     Re =     0.160 e 6     Ncrit =   9.000

  alpha     CL        CD       CDp       Cm    Top Xtr Bot Xtr   Cpmin    Chinge    XCp    
 ------- -------- --------- --------- -------- ------- ------- -------- --------- ---------
   0.000   0.3690   0.01127   0.00571  -0.0828  0.8710  1.0000  -0.5960   0.0000   0.0000   0.0000   0.4736
   0.500   0.4268   0.01098   0.00526  -0.0822  0.8463  1.0000  -0.6578   0.0000   0.0000   0.0000   0.4412
   1.000   0.4862   0.01065   0.00473  -0.0816  0.8213  1.0000  -0.7304   0.0000   0.0000   0.0000   0.4160
   1.500   0.5384   0.01049   0.00442  -0.0798  0.7867  1.0000  -0.8000   0.0000   0.0000   0.0000   0.3961
   2.000   0.5907   0.01050   0.00428  -0.0783  0.7491  1.0000  -0.8820   0.0000   0.0000   0.0000   0.3801
   2.500   0.6429   0.01065   0.00426  -0.0769  0.7076  1.0000  -0.9664   0.0000   0.0000   0.0000   0.3667
   3.000   0.6946   0.01093   0.00437  -0.0756  0.6642  1.0000  -1.0661   0.0000   0.0000   0.0000   0.3555
   3.500   0.7458   0.01130   0.00464  -0.0743  0.6208  1.0000  -1.1686   0.0000   0.0000   0.0000   0.3458
   4.000   0.7961   0.01177   0.00492  -0.0729  0.5748  1.0000  -1.2838   0.0000   0.0000   0.0000   0.3374
   4.500   0.8456   0.01233   0.00529  -0.0715  0.5275  1.0000  -1.4281   0.0000   0.0000   0.0000   0.3299
   5.000   0.8942   0.01296   0.00576  -0.0701  0.4793  1.0000  -1.5869   0.0000   0.0000   0.0000   0.3232
   5.500   0.9417   0.01369   0.00632  -0.0686  0.4297  1.0000  -1.7478   0.0000   0.0000   0.0000   0.3171
   6.000   0.9882   0.01453   0.00702  -0.0670  0.3813  1.0000  -2.0275   0.0000   0.0000   0.0000   0.3116
   6.500   1.0327   0.01544   0.00775  -0.0653  0.3288  1.0000  -2.3763   0.0000   0.0000   0.0000   0.3063
   7.000   1.0762   0.01668   0.00933  -0.0634  0.2816  1.0000  -2.9117   0.0000   0.0000   0.0000   0.3014
   7.500   1.1177   0.01799   0.01059  -0.0614  0.2365  1.0000  -3.4238   0.0000   0.0000   0.0000   0.2968
   8.000   1.1578   0.01937   0.01193  -0.0593  0.1964  1.0000  -3.9335   0.0000   0.0000   0.0000   0.2925
   8.500   1.1957   0.02081   0.01335  -0.0570  0.1595  1.0000  -4.4482   0.0000   0.0000   0.0000   0.2883
   9.000   1.2295   0.02224   0.01460  -0.0546  0.1194  1.0000  -4.9676   0.0000   0.0000   0.0000   0.2843
   9.500   1.2624   0.02390   0.01623  -0.0520  0.0876  1.0000  -5.4603   0.0000   0.0000   0.0000   0.2804
  10.000   1.2491   0.02942   0.02139  -0.0433  0.0244  1.0000  -5.2379   0.0000   0.0000   0.0000   0.2732
  10.500   1.2553   0.03320   0.02557  -0.0376  0.0219  1.0000  -5.3511   0.0000   0.0000   0.0000   0.2678
  11.000   1.2610   0.03788   0.03065  -0.0329  0.0206  1.0000  -5.4650   0.0000   0.0000   0.0000   0.2631
  11.500   1.2662   0.04345   0.03679  -0.0289  0.0197  1.0000  -5.5261   0.0000   0.0000   0.0000   0.2591
  12.000   1.2635   0.05013   0.04403  -0.0257  0.0198  1.0000  -5.5750   0.0000   0.0000   0.0000   0.2559
  12.500   1.2463   0.05817   0.05265  -0.0241  0.0201  1.0000  -5.5507   0.0000   0.0000   0.0000   0.2541
  13.000   1.2170   0.06773   0.06274  -0.0250  0.0204  1.0000  -5.4632   0.0000   0.0000   0.0000   0.2545
  13.500   1.1812   0.07958   0.07507  -0.0295  0.0207  1.0000  -5.3191   0.0000   0.0000   0.0000   0.2581
  14.000   1.1407   0.09388   0.08977  -0.0377  0.0210  1.0000  -5.1095   0.0000   0.0000   0.0000   0.2654
  14.500   1.0962   0.11124   0.10748  -0.0495  0.0213  1.0000  -4.8026   0.0000   0.0000   0.0000   0.2768
  15.000   1.0450   0.13274   0.12913  -0.0645  0.0221  1.0000  -4.3283   0.0000   0.0000   0.0000   0.2932
  15.500   0.9912   0.15997   0.15638  -0.0801  0.0232  1.0000  -3.5013   0.0000   0.0000   0.0000   0.3128
  16.500   0.9573   0.20429   0.20059  -0.0979  0.0365  1.0000  -2.2202   0.0000   0.0000   0.0000   0.3347
  17.500   0.9598   0.23249   0.22880  -0.1091  0.0476  1.0000  -1.8123   0.0000   0.0000   0.0000   0.3453
  18.000   0.9682   0.24271   0.23904  -0.1123  0.0457  1.0000  -1.8154   0.0000   0.0000   0.0000   0.3469
  18.500   0.9787   0.25265   0.24902  -0.1145  0.0440  1.0000  -1.8616   0.0000   0.0000   0.0000   0.3470
  19.000   0.9928   0.26396   0.26039  -0.1149  0.0422  1.0000  -1.9651   0.0000   0.0000   0.0000   0.3449
  19.500   0.9863   0.28288   0.27927  -0.1188  0.0408  1.0000  -1.8017   0.0000   0.0000   0.0000   0.3493
  20.000   0.9871   0.29407   0.29049  -0.1224  0.0407  1.0000  -1.7405   0.0000   0.0000   0.0000   0.3522


