xflr5 v6.61

 Calculated polar for: SD7062 (14%)

 1 1 Reynolds number fixed          Mach number fixed         

 xtrf =   1.000 (top)        1.000 (bottom)
 Mach =   0.000     Re =     0.060 e 6     Ncrit =   9.000

  alpha     CL        CD       CDp       Cm    Top Xtr Bot Xtr   Cpmin    Chinge    XCp    
 ------- -------- --------- --------- -------- ------- ------- -------- --------- ---------
   0.000   0.3030   0.03151   0.02386  -0.0805  0.7484  1.0000  -0.7471   0.0000   0.0000   0.0000   0.5159
   0.500   0.3925   0.03142   0.02327  -0.0847  0.7317  1.0000  -0.8268   0.0000   0.0000   0.0000   0.4646
   1.000   0.4153   0.03356   0.02514  -0.0821  0.7024  1.0000  -0.8566   0.0000   0.0000   0.0000   0.4457
   1.500   0.5011   0.03294   0.02419  -0.0839  0.6856  1.0000  -0.9481   0.0000   0.0000   0.0000   0.4146
   2.000   0.5135   0.03637   0.02749  -0.0812  0.6583  1.0000  -0.9642   0.0000   0.0000   0.0000   0.4046
   2.500   0.5909   0.03575   0.02666  -0.0816  0.6404  1.0000  -1.0550   0.0000   0.0000   0.0000   0.3839
   3.000   0.6155   0.03857   0.02939  -0.0792  0.6141  1.0000  -1.0938   0.0000   0.0000   0.0000   0.3738
   3.500   0.6748   0.03901   0.02980  -0.0785  0.5949  1.0000  -1.1732   0.0000   0.0000   0.0000   0.3609
   4.000   0.7585   0.03829   0.02885  -0.0786  0.5816  1.0000  -1.2850   0.0000   0.0000   0.0000   0.3475
   4.500   0.7429   0.04368   0.03433  -0.0748  0.5497  1.0000  -1.2793   0.0000   0.0000   0.0000   0.3441
   5.000   0.8438   0.04066   0.03114  -0.0748  0.5371  1.0000  -1.4357   0.0000   0.0000   0.0000   0.3313
   5.500   0.7584   0.05356   0.04418  -0.0709  0.5043  1.0000  -1.3210   0.0000   0.0000   0.0000   0.3356
   6.000   0.8660   0.04921   0.03978  -0.0696  0.4926  1.0000  -1.4929   0.0000   0.0000   0.0000   0.3218
   6.500   0.7853   0.06323   0.05385  -0.0683  0.4625  1.0000  -1.3743   0.0000   0.0000   0.0000   0.3280
   7.000   0.8443   0.06343   0.05406  -0.0666  0.4466  1.0000  -1.4897   0.0000   0.0000   0.0000   0.3191
   7.500   0.9731   0.05628   0.04710  -0.0634  0.4384  1.0000  -1.7337   0.0000   0.0000   0.0000   0.3046
   8.000   0.7907   0.08361   0.07434  -0.0683  0.4118  1.0000  -1.3913   0.0000   0.0000   0.0000   0.3257
   8.500   0.8856   0.07943   0.07036  -0.0643  0.3947  1.0000  -1.5844   0.0000   0.0000   0.0000   0.3109
   9.500   0.8011   0.10536   0.09627  -0.0707  0.3718  1.0000  -1.3947   0.0000   0.0000   0.0000   0.3259
  10.000   0.7857   0.11541   0.10659  -0.0738  0.3677  1.0000  -1.3469   0.0000   0.0000   0.0000   0.3310
  10.500   0.8943   0.11113   0.10231  -0.0669  0.3393  1.0000  -1.6172   0.0000   0.0000   0.0000   0.3107
  11.000   0.8428   0.12539   0.11666  -0.0730  0.3342  1.0000  -1.4668   0.0000   0.0000   0.0000   0.3223
  11.500   0.8468   0.13664   0.12803  -0.0764  0.3369  1.0000  -1.4374   0.0000   0.0000   0.0000   0.3254
  12.500   0.7844   0.15685   0.14846  -0.0886  0.3695  1.0000  -1.2202   0.0000   0.0000   0.0000   0.3475
  13.000   0.8382   0.16435   0.15605  -0.0878  0.3481  1.0000  -1.3432   0.0000   0.0000   0.0000   0.3386
  13.500   0.9048   0.18734   0.17919  -0.0893  0.3413  1.0000  -1.4717   0.0000   0.0000   0.0000   0.3319
  14.000   0.8502   0.18128   0.17312  -0.0932  0.3367  1.0000  -1.3401   0.0000   0.0000   0.0000   0.3421
  14.500   0.8440   0.18108   0.17297  -0.0958  0.3144  1.0000  -1.3304   0.0000   0.0000   0.0000   0.3451
  15.000   0.8998   0.19309   0.18513  -0.0950  0.3015  1.0000  -1.4827   0.0000   0.0000   0.0000   0.3363
  15.500   0.9191   0.21020   0.20232  -0.0979  0.2954  1.0000  -1.5117   0.0000   0.0000   0.0000   0.3367
  16.000   0.8814   0.20265   0.19477  -0.1028  0.2767  1.0000  -1.4031   0.0000   0.0000   0.0000   0.3459
  16.500   0.9099   0.21062   0.20286  -0.1034  0.2634  1.0000  -1.4725   0.0000   0.0000   0.0000   0.3420
  17.000   0.9812   0.24258   0.23535  -0.1025  0.2548  1.0000  -1.6221   0.0000   0.0000   0.0000   0.3321
  17.500   0.9473   0.23878   0.23154  -0.1080  0.2527  1.0000  -1.4908   0.0000   0.0000   0.0000   0.3409
  18.000   0.9275   0.23548   0.22826  -0.1129  0.2306  1.0000  -1.4063   0.0000   0.0000   0.0000   0.3476
  18.500   0.9710   0.24749   0.24047  -0.1114  0.2188  1.0000  -1.5745   0.0000   0.0000   0.0000   0.3396
  19.000   1.0017   0.27282   0.26594  -0.1135  0.2146  1.0000  -1.6404   0.0000   0.0000   0.0000   0.3375
  19.500   0.9541   0.26561   0.25871  -0.1205  0.2079  1.0000  -1.4569   0.0000   0.0000   0.0000   0.3497
  20.000   0.9564   0.27310   0.26630  -0.1236  0.1932  1.0000  -1.4447   0.0000   0.0000   0.0000   0.3517


