xflr5 v6.61

 Calculated polar for: SD7062 (14%)

 1 1 Reynolds number fixed          Mach number fixed         

 xtrf =   1.000 (top)        1.000 (bottom)
 Mach =   0.000     Re =     0.080 e 6     Ncrit =   9.000

  alpha     CL        CD       CDp       Cm    Top Xtr Bot Xtr   Cpmin    Chinge    XCp    
 ------- -------- --------- --------- -------- ------- ------- -------- --------- ---------
   0.000   0.4519   0.02220   0.01511  -0.0899  0.7256  1.0000  -0.8839   0.0000   0.0000   0.0000   0.4480
   0.500   0.4608   0.02308   0.01577  -0.0849  0.6980  1.0000  -0.9050   0.0000   0.0000   0.0000   0.4325
   1.000   0.5282   0.02274   0.01499  -0.0851  0.6809  1.0000  -0.9828   0.0000   0.0000   0.0000   0.4085
   1.500   0.5633   0.02405   0.01619  -0.0833  0.6555  1.0000  -1.0277   0.0000   0.0000   0.0000   0.3946
   2.000   0.6276   0.02375   0.01558  -0.0830  0.6379  1.0000  -1.1042   0.0000   0.0000   0.0000   0.3782
   2.500   0.6698   0.02490   0.01665  -0.0813  0.6135  1.0000  -1.1640   0.0000   0.0000   0.0000   0.3668
   3.000   0.7283   0.02486   0.01647  -0.0805  0.5936  1.0000  -1.2473   0.0000   0.0000   0.0000   0.3553
   3.500   0.7779   0.02598   0.01746  -0.0795  0.5741  1.0000  -1.3196   0.0000   0.0000   0.0000   0.3463
   4.000   0.8259   0.02648   0.01788  -0.0780  0.5504  1.0000  -1.3949   0.0000   0.0000   0.0000   0.3380
   4.500   0.8866   0.02690   0.01803  -0.0775  0.5311  1.0000  -1.4978   0.0000   0.0000   0.0000   0.3303
   5.000   0.9210   0.02851   0.01980  -0.0753  0.5090  1.0000  -1.5653   0.0000   0.0000   0.0000   0.3241
   5.500   0.9848   0.02831   0.01935  -0.0750  0.4903  1.0000  -1.6757   0.0000   0.0000   0.0000   0.3178
   6.000   1.0185   0.03033   0.02150  -0.0726  0.4685  1.0000  -1.7581   0.0000   0.0000   0.0000   0.3123
   6.500   1.0705   0.03077   0.02204  -0.0715  0.4487  1.0000  -1.8713   0.0000   0.0000   0.0000   0.3071
   7.000   1.1166   0.03267   0.02388  -0.0703  0.4306  1.0000  -1.9741   0.0000   0.0000   0.0000   0.3026
   7.500   1.1452   0.03442   0.02583  -0.0674  0.4101  1.0000  -2.0528   0.0000   0.0000   0.0000   0.2978
   8.000   1.2116   0.03443   0.02554  -0.0675  0.3906  1.0000  -2.2159   0.0000   0.0000   0.0000   0.2939
   8.500   1.2206   0.03813   0.02963  -0.0634  0.3746  1.0000  -2.2759   0.0000   0.0000   0.0000   0.2894
   9.000   1.2554   0.03961   0.03118  -0.0609  0.3570  1.0000  -2.3867   0.0000   0.0000   0.0000   0.2853
   9.500   1.3047   0.04135   0.03279  -0.0600  0.3388  1.0000  -2.5244   0.0000   0.0000   0.0000   0.2819
  10.000   1.2738   0.04642   0.03828  -0.0529  0.3252  1.0000  -2.5236   0.0000   0.0000   0.0000   0.2766
  10.500   1.2880   0.04918   0.04114  -0.0495  0.3108  1.0000  -2.6196   0.0000   0.0000   0.0000   0.2727
  11.000   1.3284   0.05245   0.04472  -0.0483  0.2958  1.0000  -2.7674   0.0000   0.0000   0.0000   0.2699
  12.000   0.9231   0.12183   0.11434  -0.0679  0.2651  1.0000  -1.7281   0.0000   0.0000   0.0000   0.3069
  12.500   0.9756   0.12178   0.11433  -0.0639  0.2527  1.0000  -1.9141   0.0000   0.0000   0.0000   0.2976
  13.000   0.9091   0.14111   0.13376  -0.0745  0.2439  1.0000  -1.6713   0.0000   0.0000   0.0000   0.3142
  13.500   0.8952   0.15290   0.14565  -0.0799  0.2440  1.0000  -1.5903   0.0000   0.0000   0.0000   0.3211
  14.000   0.9097   0.16457   0.15744  -0.0829  0.2503  1.0000  -1.6130   0.0000   0.0000   0.0000   0.3224
  14.500   0.8770   0.17520   0.16819  -0.0914  0.2657  1.0000  -1.4594   0.0000   0.0000   0.0000   0.3354
  15.500   0.9439   0.20328   0.19648  -0.0933  0.2538  1.0000  -1.6295   0.0000   0.0000   0.0000   0.3285
  16.000   0.8980   0.19787   0.19105  -0.1007  0.2358  1.0000  -1.4771   0.0000   0.0000   0.0000   0.3410
  16.500   0.9251   0.20462   0.19791  -0.1012  0.2237  1.0000  -1.5498   0.0000   0.0000   0.0000   0.3373
  17.000   0.9854   0.22881   0.22254  -0.0988  0.2151  1.0000  -1.6976   0.0000   0.0000   0.0000   0.3273
  17.500   0.9565   0.22952   0.22326  -0.1057  0.2125  1.0000  -1.5569   0.0000   0.0000   0.0000   0.3369
  18.000   0.9413   0.23069   0.22446  -0.1115  0.1930  1.0000  -1.4868   0.0000   0.0000   0.0000   0.3439
  18.500   0.9700   0.23864   0.23255  -0.1113  0.1840  1.0000  -1.6082   0.0000   0.0000   0.0000   0.3392
  19.000   1.0146   0.26415   0.25822  -0.1103  0.1781  1.0000  -1.7468   0.0000   0.0000   0.0000   0.3323
  19.500   1.0002   0.27062   0.26473  -0.1159  0.1770  1.0000  -1.6502   0.0000   0.0000   0.0000   0.3388
  20.000   0.9656   0.27057   0.26469  -0.1237  0.1656  1.0000  -1.4844   0.0000   0.0000   0.0000   0.3503


