xflr5 v6.61

 Calculated polar for: SD7062 (14%)

 1 1 Reynolds number fixed          Mach number fixed         

 xtrf =   1.000 (top)        1.000 (bottom)
 Mach =   0.000     Re =     0.200 e 6     Ncrit =   9.000

  alpha     CL        CD       CDp       Cm    Top Xtr Bot Xtr   Cpmin    Chinge    XCp    
 ------- -------- --------- --------- -------- ------- ------- -------- --------- ---------
   0.000   0.4310   0.01159   0.00565  -0.0796  0.6327  0.8136  -0.9008   0.0000   0.0000   0.0000   0.4327
   0.500   0.4759   0.01145   0.00565  -0.0762  0.6166  0.8920  -0.9530   0.0000   0.0000   0.0000   0.4073
   1.000   0.5528   0.01132   0.00534  -0.0794  0.5940  0.9796  -1.0371   0.0000   0.0000   0.0000   0.3902
   1.500   0.6147   0.01158   0.00538  -0.0812  0.5727  1.0000  -1.1098   0.0000   0.0000   0.0000   0.3780
   2.000   0.6680   0.01180   0.00542  -0.0808  0.5527  1.0000  -1.1776   0.0000   0.0000   0.0000   0.3662
   2.500   0.7220   0.01229   0.00569  -0.0804  0.5302  1.0000  -1.2538   0.0000   0.0000   0.0000   0.3561
   3.000   0.7749   0.01249   0.00581  -0.0799  0.5106  1.0000  -1.3339   0.0000   0.0000   0.0000   0.3472
   3.500   0.8282   0.01304   0.00606  -0.0794  0.4872  1.0000  -1.4151   0.0000   0.0000   0.0000   0.3393
   4.000   0.8808   0.01341   0.00644  -0.0788  0.4708  1.0000  -1.5007   0.0000   0.0000   0.0000   0.3324
   4.500   0.9324   0.01380   0.00665  -0.0780  0.4490  1.0000  -1.5964   0.0000   0.0000   0.0000   0.3260
   5.000   0.9840   0.01444   0.00719  -0.0774  0.4287  1.0000  -1.6919   0.0000   0.0000   0.0000   0.3203
   5.500   1.0346   0.01489   0.00763  -0.0766  0.4108  1.0000  -1.7919   0.0000   0.0000   0.0000   0.3151
   6.000   1.0846   0.01580   0.00840  -0.0758  0.3870  1.0000  -1.9045   0.0000   0.0000   0.0000   0.3102
   6.500   1.1330   0.01617   0.00887  -0.0747  0.3720  1.0000  -2.0184   0.0000   0.0000   0.0000   0.3056
   7.000   1.1801   0.01688   0.00944  -0.0735  0.3532  1.0000  -2.1322   0.0000   0.0000   0.0000   0.3012
   7.500   1.2272   0.01782   0.01036  -0.0724  0.3355  1.0000  -2.2545   0.0000   0.0000   0.0000   0.2973
   8.000   1.2714   0.01841   0.01099  -0.0708  0.3186  1.0000  -2.3882   0.0000   0.0000   0.0000   0.2932
   8.500   1.3149   0.01979   0.01215  -0.0694  0.2969  1.0000  -2.5200   0.0000   0.0000   0.0000   0.2895
   9.000   1.3557   0.02046   0.01303  -0.0674  0.2866  1.0000  -2.6513   0.0000   0.0000   0.0000   0.2857
   9.500   1.3928   0.02139   0.01418  -0.0650  0.2712  1.0000  -2.7915   0.0000   0.0000   0.0000   0.2818
  10.000   1.4282   0.02294   0.01565  -0.0627  0.2529  1.0000  -2.9431   0.0000   0.0000   0.0000   0.2782
  10.500   1.4556   0.02391   0.01683  -0.0590  0.2424  1.0000  -3.0830   0.0000   0.0000   0.0000   0.2740
  11.000   1.4791   0.02528   0.01824  -0.0552  0.2298  1.0000  -3.2453   0.0000   0.0000   0.0000   0.2699
  11.500   1.5054   0.02751   0.02041  -0.0523  0.2140  1.0000  -3.4116   0.0000   0.0000   0.0000   0.2665
  12.000   1.5212   0.02918   0.02233  -0.0486  0.2057  1.0000  -3.5597   0.0000   0.0000   0.0000   0.2627
  12.500   1.5351   0.03136   0.02462  -0.0455  0.1945  1.0000  -3.7047   0.0000   0.0000   0.0000   0.2594
  13.000   1.5501   0.03447   0.02763  -0.0427  0.1797  1.0000  -3.8465   0.0000   0.0000   0.0000   0.2564
  13.500   1.5592   0.03753   0.03098  -0.0403  0.1736  1.0000  -3.9755   0.0000   0.0000   0.0000   0.2537
  14.000   1.5646   0.04108   0.03486  -0.0385  0.1653  1.0000  -4.0990   0.0000   0.0000   0.0000   0.2513
  14.500   1.5665   0.04517   0.03902  -0.0371  0.1559  1.0000  -4.2112   0.0000   0.0000   0.0000   0.2493
  15.000   1.5696   0.04988   0.04375  -0.0355  0.1438  1.0000  -4.3268   0.0000   0.0000   0.0000   0.2472
  15.500   1.5624   0.05533   0.04954  -0.0353  0.1398  1.0000  -4.4307   0.0000   0.0000   0.0000   0.2460
  16.000   1.5547   0.06163   0.05613  -0.0359  0.1334  1.0000  -4.5284   0.0000   0.0000   0.0000   0.2453
  16.500   1.5481   0.06825   0.06291  -0.0371  0.1265  1.0000  -4.6286   0.0000   0.0000   0.0000   0.2449
  17.000   1.5407   0.07513   0.06979  -0.0382  0.1175  1.0000  -4.7211   0.0000   0.0000   0.0000   0.2446
  17.500   1.5208   0.08416   0.07914  -0.0408  0.1118  1.0000  -4.7523   0.0000   0.0000   0.0000   0.2454
  18.000   1.4927   0.09484   0.09017  -0.0455  0.1076  1.0000  -4.7447   0.0000   0.0000   0.0000   0.2478
  18.500   1.4652   0.10565   0.10126  -0.0510  0.1020  1.0000  -4.7273   0.0000   0.0000   0.0000   0.2509
  19.000   1.4456   0.11483   0.11058  -0.0562  0.0961  1.0000  -4.7380   0.0000   0.0000   0.0000   0.2537
  19.500   1.4321   0.12269   0.11847  -0.0601  0.0882  1.0000  -4.8276   0.0000   0.0000   0.0000   0.2556


