xflr5 v6.61

 Calculated polar for: SD7062 (14%)

 1 1 Reynolds number fixed          Mach number fixed         

 xtrf =   1.000 (top)        1.000 (bottom)
 Mach =   0.000     Re =     0.130 e 6     Ncrit =   9.000

  alpha     CL        CD       CDp       Cm    Top Xtr Bot Xtr   Cpmin    Chinge    XCp    
 ------- -------- --------- --------- -------- ------- ------- -------- --------- ---------
   0.000   0.4041   0.01510   0.00891  -0.0745  0.6762  0.9040  -0.8748   0.0000   0.0000   0.0000   0.4328
   0.500   0.5016   0.01475   0.00840  -0.0818  0.6525  0.9878  -0.9628   0.0000   0.0000   0.0000   0.4107
   1.000   0.5585   0.01505   0.00827  -0.0828  0.6317  1.0000  -1.0304   0.0000   0.0000   0.0000   0.3952
   1.500   0.6063   0.01527   0.00838  -0.0819  0.6114  1.0000  -1.0914   0.0000   0.0000   0.0000   0.3812
   2.000   0.6614   0.01540   0.00817  -0.0813  0.5897  1.0000  -1.1611   0.0000   0.0000   0.0000   0.3684
   2.500   0.7128   0.01599   0.00873  -0.0807  0.5696  1.0000  -1.2333   0.0000   0.0000   0.0000   0.3581
   3.000   0.7661   0.01622   0.00877  -0.0799  0.5484  1.0000  -1.3130   0.0000   0.0000   0.0000   0.3487
   3.500   0.8192   0.01683   0.00916  -0.0793  0.5265  1.0000  -1.3928   0.0000   0.0000   0.0000   0.3405
   4.000   0.8703   0.01720   0.00947  -0.0784  0.5057  1.0000  -1.4761   0.0000   0.0000   0.0000   0.3332
   4.500   0.9245   0.01808   0.01005  -0.0780  0.4834  1.0000  -1.5722   0.0000   0.0000   0.0000   0.3269
   5.000   0.9726   0.01846   0.01052  -0.0768  0.4647  1.0000  -1.6629   0.0000   0.0000   0.0000   0.3208
   5.500   1.0247   0.01893   0.01076  -0.0759  0.4433  1.0000  -1.7636   0.0000   0.0000   0.0000   0.3153
   6.000   1.0727   0.01997   0.01198  -0.0750  0.4248  1.0000  -1.8707   0.0000   0.0000   0.0000   0.3104
   6.500   1.1208   0.02051   0.01249  -0.0737  0.4054  1.0000  -1.9825   0.0000   0.0000   0.0000   0.3057
   7.000   1.1697   0.02167   0.01347  -0.0729  0.3842  1.0000  -2.0958   0.0000   0.0000   0.0000   0.3015
   7.500   1.2133   0.02242   0.01436  -0.0712  0.3672  1.0000  -2.2098   0.0000   0.0000   0.0000   0.2971
   8.000   1.2607   0.02333   0.01509  -0.0700  0.3486  1.0000  -2.3459   0.0000   0.0000   0.0000   0.2932
   8.500   1.3009   0.02467   0.01656  -0.0682  0.3313  1.0000  -2.4698   0.0000   0.0000   0.0000   0.2894
   9.000   1.3408   0.02549   0.01742  -0.0661  0.3142  1.0000  -2.5982   0.0000   0.0000   0.0000   0.2855
   9.500   1.3842   0.02751   0.01956  -0.0650  0.2957  1.0000  -2.7406   0.0000   0.0000   0.0000   0.2823
  10.000   1.4134   0.02875   0.02111  -0.0617  0.2832  1.0000  -2.8780   0.0000   0.0000   0.0000   0.2782
  10.500   1.4455   0.02975   0.02212  -0.0588  0.2676  1.0000  -3.0263   0.0000   0.0000   0.0000   0.2744
  11.000   1.4773   0.03212   0.02450  -0.0566  0.2516  1.0000  -3.1960   0.0000   0.0000   0.0000   0.2711
  11.500   1.4875   0.03398   0.02665  -0.0514  0.2411  1.0000  -3.3237   0.0000   0.0000   0.0000   0.2665
  12.000   1.5037   0.03585   0.02862  -0.0476  0.2293  1.0000  -3.4685   0.0000   0.0000   0.0000   0.2626
  12.500   1.5296   0.03910   0.03182  -0.0455  0.2141  1.0000  -3.6311   0.0000   0.0000   0.0000   0.2598
  13.000   1.5190   0.04236   0.03546  -0.0408  0.2067  1.0000  -3.7070   0.0000   0.0000   0.0000   0.2560
  13.500   1.5156   0.04606   0.03939  -0.0379  0.1967  1.0000  -3.7988   0.0000   0.0000   0.0000   0.2531
  14.000   1.5254   0.04933   0.04269  -0.0361  0.1868  1.0000  -3.9265   0.0000   0.0000   0.0000   0.2507
  14.500   1.5182   0.05579   0.04949  -0.0345  0.1767  1.0000  -3.9914   0.0000   0.0000   0.0000   0.2488
  15.000   1.4712   0.06503   0.05919  -0.0346  0.1722  1.0000  -3.9384   0.0000   0.0000   0.0000   0.2484
  16.000   1.0776   0.14725   0.14209  -0.0734  0.1492  1.0000  -2.5000   0.0000   0.0000   0.0000   0.2931
  16.500   1.0451   0.16480   0.15969  -0.0812  0.1421  1.0000  -2.3263   0.0000   0.0000   0.0000   0.3024
  17.000   1.0054   0.18517   0.18012  -0.0928  0.1311  1.0000  -2.0507   0.0000   0.0000   0.0000   0.3172
  17.500   1.0099   0.19439   0.18941  -0.0968  0.1239  1.0000  -2.0282   0.0000   0.0000   0.0000   0.3198
  18.000   1.0473   0.19403   0.18914  -0.0950  0.1180  1.0000  -2.2658   0.0000   0.0000   0.0000   0.3131
  19.000   1.0272   0.22495   0.22019  -0.1069  0.1105  1.0000  -2.0637   0.0000   0.0000   0.0000   0.3256
  20.000   1.0300   0.26080   0.25624  -0.1142  0.1136  1.0000  -1.9223   0.0000   0.0000   0.0000   0.3313


