xflr5 v6.61

 Calculated polar for: SD7037-092-88

 1 1 Reynolds number fixed          Mach number fixed         

 xtrf =   1.000 (top)        1.000 (bottom)
 Mach =   0.000     Re =     0.001 e 6     Ncrit =   9.000

  alpha     CL        CD       CDp       Cm    Top Xtr Bot Xtr   Cpmin    Chinge    XCp    
 ------- -------- --------- --------- -------- ------- ------- -------- --------- ---------
   0.000   0.0424   0.16467   0.04540  -0.0314  1.0000  1.0000  -0.5095   0.0000   0.0000   0.0000   0.9953
   0.500   0.0754   0.16464   0.04422  -0.0309  1.0000  1.0000  -0.4184   0.0000   0.0000   0.0000   0.6606
   1.000   0.1077   0.16479   0.04352  -0.0303  1.0000  1.0000  -0.4427   0.0000   0.0000   0.0000   0.5308
   1.500   0.1389   0.16512   0.04344  -0.0298  1.0000  1.0000  -0.4689   0.0000   0.0000   0.0000   0.4627
   2.000   0.1703   0.16560   0.04342  -0.0291  1.0000  1.0000  -0.4942   0.0000   0.0000   0.0000   0.4181
   2.500   0.2009   0.16624   0.04378  -0.0283  1.0000  1.0000  -0.5233   0.0000   0.0000   0.0000   0.3879
   3.000   0.2305   0.16704   0.04453  -0.0276  1.0000  1.0000  -0.5515   0.0000   0.0000   0.0000   0.3661
   3.500   0.2595   0.16814   0.04577  -0.0269  1.0000  1.0000  -0.5806   0.0000   0.0000   0.0000   0.3497
   4.000   0.2882   0.16964   0.04751  -0.0263  1.0000  1.0000  -0.6142   0.0000   0.0000   0.0000   0.3371
   4.500   0.3165   0.17145   0.04967  -0.0259  1.0000  1.0000  -0.6472   0.0000   0.0000   0.0000   0.3272
   5.000   0.3439   0.17351   0.05225  -0.0256  1.0000  1.0000  -0.6823   0.0000   0.0000   0.0000   0.3193
   5.500   0.3704   0.17582   0.05524  -0.0254  1.0000  1.0000  -0.7202   0.0000   0.0000   0.0000   0.3130
   6.000   0.3960   0.17842   0.05863  -0.0253  1.0000  1.0000  -0.7565   0.0000   0.0000   0.0000   0.3079
   6.500   0.4209   0.18130   0.06243  -0.0254  1.0000  1.0000  -0.7948   0.0000   0.0000   0.0000   0.3039
   7.000   0.4448   0.18445   0.06657  -0.0256  1.0000  1.0000  -0.8367   0.0000   0.0000   0.0000   0.3007
   7.500   0.4674   0.18781   0.07173  -0.0260  1.0000  1.0000  -0.8771   0.0000   0.0000   0.0000   0.2984
   8.000   0.4889   0.19144   0.07636  -0.0266  1.0000  1.0000  -0.9151   0.0000   0.0000   0.0000   0.2969
   8.500   0.5095   0.19534   0.08137  -0.0274  1.0000  1.0000  -0.9602   0.0000   0.0000   0.0000   0.2957
   9.000   0.5294   0.19951   0.08674  -0.0283  1.0000  1.0000  -1.0025   0.0000   0.0000   0.0000   0.2950
   9.500   0.5484   0.20395   0.09244  -0.0294  1.0000  1.0000  -1.0417   0.0000   0.0000   0.0000   0.2946
  10.000   0.5666   0.20867   0.09845  -0.0307  1.0000  1.0000  -1.0835   0.0000   0.0000   0.0000   0.2947
  10.500   0.5841   0.21366   0.10475  -0.0322  1.0000  1.0000  -1.1309   0.0000   0.0000   0.0000   0.2950
  11.000   0.6009   0.21891   0.11134  -0.0338  1.0000  1.0000  -1.1745   0.0000   0.0000   0.0000   0.2957
  11.500   0.6170   0.22442   0.11820  -0.0357  1.0000  1.0000  -1.2141   0.0000   0.0000   0.0000   0.2966
  12.000   0.6324   0.23019   0.12531  -0.0377  1.0000  1.0000  -1.2496   0.0000   0.0000   0.0000   0.2978
  12.500   0.6472   0.23621   0.13266  -0.0398  1.0000  1.0000  -1.2963   0.0000   0.0000   0.0000   0.2992
  13.000   0.6615   0.24245   0.14023  -0.0421  1.0000  1.0000  -1.3443   0.0000   0.0000   0.0000   0.3007
  13.500   0.6752   0.24892   0.14800  -0.0445  1.0000  1.0000  -1.4023   0.0000   0.0000   0.0000   0.3024
  14.000   0.6884   0.25560   0.15596  -0.0471  1.0000  1.0000  -1.4652   0.0000   0.0000   0.0000   0.3043
  14.500   0.7010   0.26249   0.16411  -0.0497  1.0000  1.0000  -1.5225   0.0000   0.0000   0.0000   0.3062
  15.000   0.7131   0.26959   0.17240  -0.0524  1.0000  1.0000  -1.5738   0.0000   0.0000   0.0000   0.3082
  15.500   0.7258   0.27654   0.18372  -0.0547  1.0000  1.0000  -1.5973   0.0000   0.0000   0.0000   0.3097
  16.000   0.7365   0.28388   0.19231  -0.0576  1.0000  1.0000  -1.6349   0.0000   0.0000   0.0000   0.3119
  16.500   0.7465   0.29139   0.20108  -0.0605  1.0000  1.0000  -1.6691   0.0000   0.0000   0.0000   0.3141
  17.000   0.7557   0.29904   0.21000  -0.0633  1.0000  1.0000  -1.6987   0.0000   0.0000   0.0000   0.3163
  17.500   0.7643   0.30681   0.21904  -0.0662  1.0000  1.0000  -1.7232   0.0000   0.0000   0.0000   0.3184
  18.000   0.7721   0.31464   0.22816  -0.0690  1.0000  1.0000  -1.7422   0.0000   0.0000   0.0000   0.3206
  18.500   0.7790   0.32250   0.23730  -0.0718  1.0000  1.0000  -1.7558   0.0000   0.0000   0.0000   0.3227
  19.000   0.7851   0.33031   0.24643  -0.0745  1.0000  1.0000  -1.7637   0.0000   0.0000   0.0000   0.3248
  19.500   0.7901   0.33804   0.25546  -0.0771  1.0000  1.0000  -1.7660   0.0000   0.0000   0.0000   0.3268
  20.000   0.7943   0.34560   0.26435  -0.0796  1.0000  1.0000  -1.7628   0.0000   0.0000   0.0000   0.3288


