xflr5 v6.61

 Calculated polar for: SD7032-099-88

 1 1 Reynolds number fixed          Mach number fixed         

 xtrf =   1.000 (top)        1.000 (bottom)
 Mach =   0.000     Re =     0.002 e 6     Ncrit =   9.000

  alpha     CL        CD       CDp       Cm    Top Xtr Bot Xtr   Cpmin    Chinge    XCp    
 ------- -------- --------- --------- -------- ------- ------- -------- --------- ---------
   0.000   0.0425   0.08196   0.03227  -0.0379  1.0000  1.0000  -1.0196   0.0000   0.0000   0.0000   1.1468
   0.500   0.0785   0.08252   0.03075  -0.0375  1.0000  1.0000  -0.7527   0.0000   0.0000   0.0000   0.7277
   1.000   0.1136   0.08340   0.03035  -0.0370  1.0000  1.0000  -0.5812   0.0000   0.0000   0.0000   0.5744
   1.500   0.1481   0.08452   0.03038  -0.0366  1.0000  1.0000  -0.5069   0.0000   0.0000   0.0000   0.4947
   2.000   0.1817   0.08588   0.03084  -0.0363  1.0000  1.0000  -0.5339   0.0000   0.0000   0.0000   0.4463
   2.500   0.2144   0.08747   0.03172  -0.0360  1.0000  1.0000  -0.5643   0.0000   0.0000   0.0000   0.4141
   3.000   0.2460   0.08930   0.03301  -0.0359  1.0000  1.0000  -0.5931   0.0000   0.0000   0.0000   0.3914
   3.500   0.2765   0.09137   0.03470  -0.0359  1.0000  1.0000  -0.6228   0.0000   0.0000   0.0000   0.3748
   4.000   0.3059   0.09368   0.03679  -0.0360  1.0000  1.0000  -0.6549   0.0000   0.0000   0.0000   0.3623
   4.500   0.3342   0.09624   0.03926  -0.0363  1.0000  1.0000  -0.6847   0.0000   0.0000   0.0000   0.3529
   5.000   0.3613   0.09906   0.04211  -0.0368  1.0000  1.0000  -0.7123   0.0000   0.0000   0.0000   0.3456
   5.500   0.3873   0.10212   0.04532  -0.0375  1.0000  1.0000  -0.7458   0.0000   0.0000   0.0000   0.3401
   6.000   0.4122   0.10543   0.04925  -0.0384  1.0000  1.0000  -0.7764   0.0000   0.0000   0.0000   0.3360
   6.500   0.4360   0.10899   0.05298  -0.0394  1.0000  1.0000  -0.8041   0.0000   0.0000   0.0000   0.3329
   7.000   0.4589   0.11279   0.05705  -0.0407  1.0000  1.0000  -0.8356   0.0000   0.0000   0.0000   0.3307
   7.500   0.4810   0.11684   0.06145  -0.0422  1.0000  1.0000  -0.8676   0.0000   0.0000   0.0000   0.3292
   8.000   0.5023   0.12114   0.06615  -0.0439  1.0000  1.0000  -0.8962   0.0000   0.0000   0.0000   0.3283
   8.500   0.5229   0.12568   0.07116  -0.0457  1.0000  1.0000  -0.9309   0.0000   0.0000   0.0000   0.3279
   9.000   0.5428   0.13046   0.07646  -0.0478  1.0000  1.0000  -0.9655   0.0000   0.0000   0.0000   0.3279
   9.500   0.5622   0.13548   0.08204  -0.0500  1.0000  1.0000  -0.9965   0.0000   0.0000   0.0000   0.3283
  10.000   0.5810   0.14073   0.08789  -0.0525  1.0000  1.0000  -1.0354   0.0000   0.0000   0.0000   0.3290
  10.500   0.5992   0.14621   0.09400  -0.0551  1.0000  1.0000  -1.0748   0.0000   0.0000   0.0000   0.3300
  11.000   0.6170   0.15193   0.10037  -0.0578  1.0000  1.0000  -1.1101   0.0000   0.0000   0.0000   0.3312
  11.500   0.6344   0.15788   0.10700  -0.0607  1.0000  1.0000  -1.1416   0.0000   0.0000   0.0000   0.3326
  12.000   0.6513   0.16407   0.11389  -0.0637  1.0000  1.0000  -1.1882   0.0000   0.0000   0.0000   0.3342
  12.500   0.6678   0.17050   0.12102  -0.0669  1.0000  1.0000  -1.2298   0.0000   0.0000   0.0000   0.3359
  13.000   0.6840   0.17716   0.12834  -0.0702  1.0000  1.0000  -1.2662   0.0000   0.0000   0.0000   0.3376
  13.500   0.6996   0.18433   0.13834  -0.0735  1.0000  1.0000  -1.2969   0.0000   0.0000   0.0000   0.3394
  14.000   0.7149   0.19147   0.14616  -0.0769  1.0000  1.0000  -1.3310   0.0000   0.0000   0.0000   0.3414
  14.500   0.7298   0.19891   0.15426  -0.0805  1.0000  1.0000  -1.4172   0.0000   0.0000   0.0000   0.3434
  15.000   0.7444   0.20665   0.16265  -0.0841  1.0000  1.0000  -1.4958   0.0000   0.0000   0.0000   0.3454
  15.500   0.7584   0.21471   0.17135  -0.0877  1.0000  1.0000  -1.5681   0.0000   0.0000   0.0000   0.3474
  16.000   0.7721   0.22308   0.18036  -0.0914  1.0000  1.0000  -1.6345   0.0000   0.0000   0.0000   0.3494
  16.500   0.7853   0.23176   0.18968  -0.0950  1.0000  1.0000  -1.6949   0.0000   0.0000   0.0000   0.3513
  17.000   0.7980   0.24075   0.19929  -0.0986  1.0000  1.0000  -1.7492   0.0000   0.0000   0.0000   0.3532
  17.500   0.8101   0.25003   0.20919  -0.1022  1.0000  1.0000  -1.7970   0.0000   0.0000   0.0000   0.3550
  18.000   0.8216   0.25958   0.21935  -0.1057  1.0000  1.0000  -1.8381   0.0000   0.0000   0.0000   0.3567
  18.500   0.8325   0.26938   0.22975  -0.1091  1.0000  1.0000  -1.8721   0.0000   0.0000   0.0000   0.3584
  19.000   0.8426   0.27939   0.24037  -0.1124  1.0000  1.0000  -1.8987   0.0000   0.0000   0.0000   0.3600
  19.500   0.8519   0.28959   0.25117  -0.1156  1.0000  1.0000  -1.9179   0.0000   0.0000   0.0000   0.3615
  20.000   0.8602   0.29992   0.26210  -0.1186  1.0000  1.0000  -1.9293   0.0000   0.0000   0.0000   0.3630


