xflr5 v6.61

 Calculated polar for: SD7032-099-88

 1 1 Reynolds number fixed          Mach number fixed         

 xtrf =   1.000 (top)        1.000 (bottom)
 Mach =   0.000     Re =     0.040 e 6     Ncrit =   9.000

  alpha     CL        CD       CDp       Cm    Top Xtr Bot Xtr   Cpmin    Chinge    XCp    
 ------- -------- --------- --------- -------- ------- ------- -------- --------- ---------
   0.000   0.0768   0.02653   0.01711  -0.0503  1.0000  1.0000  -1.2689   0.0000   0.0000   0.0000   0.9049
   0.500   0.1147   0.02830   0.01834  -0.0511  1.0000  1.0000  -1.0198   0.0000   0.0000   0.0000   0.6941
   1.000   0.2076   0.03157   0.02079  -0.0617  0.9725  1.0000  -0.6224   0.0000   0.0000   0.0000   0.5451
   1.500   0.2977   0.03445   0.02328  -0.0710  0.9313  1.0000  -0.5889   0.0000   0.0000   0.0000   0.4861
   2.000   0.3876   0.03737   0.02593  -0.0795  0.8957  1.0000  -0.6644   0.0000   0.0000   0.0000   0.4522
   2.500   0.4571   0.03958   0.02802  -0.0837  0.8559  1.0000  -0.7343   0.0000   0.0000   0.0000   0.4300
   3.000   0.5277   0.04178   0.03018  -0.0876  0.8191  1.0000  -0.8064   0.0000   0.0000   0.0000   0.4124
   3.500   0.6096   0.04349   0.03208  -0.0917  0.7824  1.0000  -0.9025   0.0000   0.0000   0.0000   0.3966
   4.000   0.6567   0.04522   0.03384  -0.0913  0.7431  1.0000  -0.9680   0.0000   0.0000   0.0000   0.3848
   4.500   0.6839   0.04830   0.03696  -0.0898  0.7073  1.0000  -1.0083   0.0000   0.0000   0.0000   0.3766
   5.000   0.7309   0.05064   0.03940  -0.0892  0.6692  1.0000  -1.0847   0.0000   0.0000   0.0000   0.3669
   5.500   0.7969   0.05240   0.04134  -0.0896  0.6374  1.0000  -1.1929   0.0000   0.0000   0.0000   0.3568
   6.000   0.8924   0.05060   0.03983  -0.0889  0.6010  1.0000  -1.3823   0.0000   0.0000   0.0000   0.3434
   6.500   0.8587   0.05903   0.04829  -0.0860  0.5661  1.0000  -1.3512   0.0000   0.0000   0.0000   0.3435
   7.000   0.8952   0.06289   0.05235  -0.0846  0.5363  1.0000  -1.4561   0.0000   0.0000   0.0000   0.3373
   7.500   1.0429   0.05555   0.04623  -0.0812  0.4994  1.0000  -1.8875   0.0000   0.0000   0.0000   0.3201
   8.000   0.9083   0.07558   0.06534  -0.0824  0.4778  1.0000  -1.5677   0.0000   0.0000   0.0000   0.3325
   8.500   0.9977   0.07391   0.06482  -0.0778  0.4461  1.0000  -1.8611   0.0000   0.0000   0.0000   0.3191
   9.000   0.9201   0.08943   0.08018  -0.0813  0.4272  1.0000  -1.6713   0.0000   0.0000   0.0000   0.3292
   9.500   0.9979   0.09043   0.08166  -0.0771  0.3991  1.0000  -1.9967   0.0000   0.0000   0.0000   0.3173
  10.000   0.9319   0.10608   0.09720  -0.0827  0.3920  1.0000  -1.7324   0.0000   0.0000   0.0000   0.3284
  10.500   0.9949   0.10713   0.09866  -0.0772  0.3521  1.0000  -2.1810   0.0000   0.0000   0.0000   0.3165
  11.000   0.9548   0.12205   0.11357  -0.0830  0.3502  1.0000  -2.0071   0.0000   0.0000   0.0000   0.3255
  11.500   0.9370   0.13489   0.12648  -0.0877  0.3498  1.0000  -1.9405   0.0000   0.0000   0.0000   0.3317
  12.000   0.9167   0.14538   0.13701  -0.0921  0.3468  1.0000  -1.8644   0.0000   0.0000   0.0000   0.3382
  12.500   0.8751   0.15868   0.15034  -0.1028  0.4154  1.0000  -1.6076   0.0000   0.0000   0.0000   0.3548
  13.000   0.9435   0.18434   0.17637  -0.1058  0.4012  1.0000  -1.8952   0.0000   0.0000   0.0000   0.3491
  13.500   0.8862   0.17358   0.16544  -0.1071  0.3847  1.0000  -1.7115   0.0000   0.0000   0.0000   0.3570
  14.000   0.9491   0.19640   0.18860  -0.1072  0.3531  1.0000  -2.0005   0.0000   0.0000   0.0000   0.3487
  14.500   0.9112   0.18830   0.18040  -0.1101  0.3334  1.0000  -1.8737   0.0000   0.0000   0.0000   0.3556
  15.000   0.9515   0.20270   0.19507  -0.1103  0.3147  1.0000  -2.0595   0.0000   0.0000   0.0000   0.3502
  15.500   0.9805   0.22577   0.21829  -0.1132  0.3081  1.0000  -2.1504   0.0000   0.0000   0.0000   0.3492
  16.000   0.9413   0.21563   0.20804  -0.1176  0.2949  1.0000  -1.9969   0.0000   0.0000   0.0000   0.3578
  16.500   1.0057   0.24644   0.23919  -0.1158  0.2651  1.0000  -2.2125   0.0000   0.0000   0.0000   0.3475
  17.000   0.9647   0.23627   0.22889  -0.1214  0.2575  1.0000  -2.0329   0.0000   0.0000   0.0000   0.3572
  17.500   0.9710   0.24431   0.23703  -0.1237  0.2375  1.0000  -1.9953   0.0000   0.0000   0.0000   0.3581
  18.000   1.0020   0.26853   0.26138  -0.1237  0.2229  1.0000  -1.9431   0.0000   0.0000   0.0000   0.3535
  19.500   0.9804   0.28864   0.28148  -0.1322  0.1733  1.0000  -1.5564   0.0000   0.0000   0.0000   0.3627
  20.000   0.9809   0.29847   0.29170  -0.1332  0.1618  1.0000  -1.4940   0.0000   0.0000   0.0000   0.3630


