xflr5 v6.61

 Calculated polar for: SD7037-092-88

 1 1 Reynolds number fixed          Mach number fixed         

 xtrf =   1.000 (top)        1.000 (bottom)
 Mach =   0.000     Re =     0.002 e 6     Ncrit =   9.000

  alpha     CL        CD       CDp       Cm    Top Xtr Bot Xtr   Cpmin    Chinge    XCp    
 ------- -------- --------- --------- -------- ------- ------- -------- --------- ---------
   0.000   0.0470   0.07958   0.02658  -0.0325  1.0000  1.0000  -0.7955   0.0000   0.0000   0.0000   0.9435
   0.500   0.0821   0.08006   0.02604  -0.0316  1.0000  1.0000  -0.6499   0.0000   0.0000   0.0000   0.6344
   1.000   0.1167   0.08075   0.02593  -0.0308  1.0000  1.0000  -0.5067   0.0000   0.0000   0.0000   0.5120
   1.500   0.1509   0.08164   0.02613  -0.0300  1.0000  1.0000  -0.4821   0.0000   0.0000   0.0000   0.4462
   2.000   0.1845   0.08279   0.02667  -0.0293  1.0000  1.0000  -0.5158   0.0000   0.0000   0.0000   0.4055
   2.500   0.2172   0.08419   0.02759  -0.0286  1.0000  1.0000  -0.5482   0.0000   0.0000   0.0000   0.3783
   3.000   0.2489   0.08582   0.02892  -0.0281  1.0000  1.0000  -0.5852   0.0000   0.0000   0.0000   0.3590
   3.500   0.2794   0.08769   0.03064  -0.0278  1.0000  1.0000  -0.6213   0.0000   0.0000   0.0000   0.3449
   4.000   0.3086   0.08982   0.03276  -0.0275  1.0000  1.0000  -0.6563   0.0000   0.0000   0.0000   0.3344
   4.500   0.3366   0.09221   0.03527  -0.0275  1.0000  1.0000  -0.6964   0.0000   0.0000   0.0000   0.3265
   5.000   0.3632   0.09488   0.03818  -0.0277  1.0000  1.0000  -0.7338   0.0000   0.0000   0.0000   0.3206
   5.500   0.3885   0.09783   0.04147  -0.0281  1.0000  1.0000  -0.7698   0.0000   0.0000   0.0000   0.3162
   6.000   0.4125   0.10107   0.04513  -0.0287  1.0000  1.0000  -0.8115   0.0000   0.0000   0.0000   0.3131
   6.500   0.4353   0.10460   0.04915  -0.0296  1.0000  1.0000  -0.8496   0.0000   0.0000   0.0000   0.3111
   7.000   0.4568   0.10844   0.05417  -0.0307  1.0000  1.0000  -0.8855   0.0000   0.0000   0.0000   0.3098
   7.500   0.4771   0.11253   0.05873  -0.0321  1.0000  1.0000  -0.9289   0.0000   0.0000   0.0000   0.3095
   8.000   0.4965   0.11689   0.06359  -0.0338  1.0000  1.0000  -0.9676   0.0000   0.0000   0.0000   0.3098
   8.500   0.5150   0.12152   0.06876  -0.0357  1.0000  1.0000  -1.0017   0.0000   0.0000   0.0000   0.3106
   9.000   0.5329   0.12641   0.07423  -0.0379  1.0000  1.0000  -1.0428   0.0000   0.0000   0.0000   0.3118
   9.500   0.5502   0.13156   0.07997  -0.0403  1.0000  1.0000  -1.0836   0.0000   0.0000   0.0000   0.3134
  10.000   0.5670   0.13696   0.08599  -0.0429  1.0000  1.0000  -1.1197   0.0000   0.0000   0.0000   0.3153
  10.500   0.5833   0.14259   0.09225  -0.0456  1.0000  1.0000  -1.1511   0.0000   0.0000   0.0000   0.3174
  11.000   0.5993   0.14844   0.09874  -0.0486  1.0000  1.0000  -1.2092   0.0000   0.0000   0.0000   0.3196
  11.500   0.6151   0.15453   0.10548  -0.0517  1.0000  1.0000  -1.2826   0.0000   0.0000   0.0000   0.3220
  12.000   0.6305   0.16084   0.11244  -0.0549  1.0000  1.0000  -1.3511   0.0000   0.0000   0.0000   0.3245
  12.500   0.6458   0.16738   0.11962  -0.0582  1.0000  1.0000  -1.4146   0.0000   0.0000   0.0000   0.3270
  13.000   0.6608   0.17414   0.12703  -0.0617  1.0000  1.0000  -1.4724   0.0000   0.0000   0.0000   0.3296
  13.500   0.6756   0.18109   0.13461  -0.0652  1.0000  1.0000  -1.5244   0.0000   0.0000   0.0000   0.3321
  14.000   0.6903   0.18829   0.14244  -0.0687  1.0000  1.0000  -1.5702   0.0000   0.0000   0.0000   0.3346
  14.500   0.7047   0.19580   0.15057  -0.0723  1.0000  1.0000  -1.6096   0.0000   0.0000   0.0000   0.3370
  15.000   0.7189   0.20361   0.15898  -0.0760  1.0000  1.0000  -1.6420   0.0000   0.0000   0.0000   0.3394
  15.500   0.7331   0.21197   0.17032  -0.0794  1.0000  1.0000  -1.6277   0.0000   0.0000   0.0000   0.3415
  16.000   0.7465   0.22041   0.17937  -0.0831  1.0000  1.0000  -1.6358   0.0000   0.0000   0.0000   0.3438
  16.500   0.7595   0.22912   0.18867  -0.0867  1.0000  1.0000  -1.6880   0.0000   0.0000   0.0000   0.3460
  17.000   0.7721   0.23812   0.19823  -0.0903  1.0000  1.0000  -1.7394   0.0000   0.0000   0.0000   0.3481
  17.500   0.7842   0.24739   0.20804  -0.0938  1.0000  1.0000  -1.7831   0.0000   0.0000   0.0000   0.3501
  18.000   0.7958   0.25690   0.21810  -0.0972  1.0000  1.0000  -1.8196   0.0000   0.0000   0.0000   0.3521
  18.500   0.8067   0.26665   0.22838  -0.1006  1.0000  1.0000  -1.8491   0.0000   0.0000   0.0000   0.3539
  19.000   0.8169   0.27659   0.23885  -0.1038  1.0000  1.0000  -1.8716   0.0000   0.0000   0.0000   0.3556
  19.500   0.8263   0.28669   0.24947  -0.1070  1.0000  1.0000  -1.8872   0.0000   0.0000   0.0000   0.3572
  20.000   0.8348   0.29690   0.26021  -0.1100  1.0000  1.0000  -1.8957   0.0000   0.0000   0.0000   0.3588


