xflr5 v6.61

 Calculated polar for: SD7032-099-88

 1 1 Reynolds number fixed          Mach number fixed         

 xtrf =   1.000 (top)        1.000 (bottom)
 Mach =   0.000     Re =     0.207 e 6     Ncrit =   9.000

  alpha     Re      CL        CD       CDp       Cm    Top Xtr Bot Xtr   Cpmin    Chinge     XCp    
 ------- -------- -------- --------- --------- -------- ------- ------- -------- --------- ---------
   6.500    20000   0.4473   0.07474   0.05859  -0.0635  1.0000  1.0000  -0.7507   0.0000   0.0000   0.0000   0.3846
   6.500    30000   0.7068   0.07524   0.06250  -0.0899  0.6738  1.0000  -1.0582   0.0000   0.0000   0.0000   0.3707
   6.500    40000   0.8587   0.05903   0.04829  -0.0860  0.5661  1.0000  -1.3512   0.0000   0.0000   0.0000   0.3435
   6.500    50000   1.0290   0.03805   0.02854  -0.0836  0.5256  1.0000  -1.7623   0.0000   0.0000   0.0000   0.3243
   6.500    60000   1.0898   0.02934   0.02060  -0.0837  0.4986  1.0000  -1.9432   0.0000   0.0000   0.0000   0.3197
   6.500    70000   1.0959   0.02589   0.01758  -0.0829  0.4770  1.0000  -1.9750   0.0000   0.0000   0.0000   0.3183
   6.500    80000   1.1058   0.02320   0.01497  -0.0828  0.4604  1.0000  -2.0140   0.0000   0.0000   0.0000   0.3175
   6.500    90000   1.1104   0.02173   0.01360  -0.0829  0.4459  1.0000  -2.0345   0.0000   0.0000   0.0000   0.3172
   6.500   100000   1.1116   0.02028   0.01241  -0.0827  0.4339  1.0000  -2.0457   0.0000   0.0000   0.0000   0.3169
   6.500   110000   1.1131   0.01911   0.01139  -0.0826  0.4232  1.0000  -2.0569   0.0000   0.0000   0.0000   0.3166
   6.500   120000   1.1145   0.01824   0.01056  -0.0826  0.4136  1.0000  -2.0665   0.0000   0.0000   0.0000   0.3165
   6.500   140000   1.1166   0.01705   0.00957  -0.0828  0.3972  1.0000  -2.0791   0.0000   0.0000   0.0000   0.3165
   6.500   150000   1.1173   0.01645   0.00913  -0.0829  0.3914  1.0000  -2.0839   0.0000   0.0000   0.0000   0.3166
   6.500   160000   1.1181   0.01594   0.00875  -0.0830  0.3857  1.0000  -2.0886   0.0000   0.0000   0.0000   0.3166
   6.500   170000   1.1189   0.01550   0.00841  -0.0832  0.3800  1.0000  -2.0929   0.0000   0.0000   0.0000   0.3166
   6.500   180000   1.1195   0.01514   0.00811  -0.0833  0.3745  1.0000  -2.0966   0.0000   0.0000   0.0000   0.3167
   6.500   190000   1.1198   0.01484   0.00785  -0.0833  0.3692  1.0000  -2.0994   0.0000   0.0000   0.0000   0.3167
   6.500   200000   1.1199   0.01461   0.00764  -0.0834  0.3634  1.0000  -2.1014   0.0000   0.0000   0.0000   0.3168
   6.500   210000   1.1203   0.01444   0.00750  -0.0835  0.3567  1.0000  -2.1033   0.0000   0.0000   0.0000   0.3168
   6.500   220000   1.1212   0.01417   0.00731  -0.0837  0.3534  1.0000  -2.1066   0.0000   0.0000   0.0000   0.3169
   6.500   230000   1.1222   0.01388   0.00713  -0.0839  0.3509  1.0000  -2.1101   0.0000   0.0000   0.0000   0.3170
   6.500   240000   1.1233   0.01362   0.00697  -0.0841  0.3481  1.0000  -2.1135   0.0000   0.0000   0.0000   0.3171
   6.500   250000   1.1241   0.01339   0.00681  -0.0843  0.3444  1.0000  -2.1165   0.0000   0.0000   0.0000   0.3172
   6.500   260000   1.1247   0.01319   0.00665  -0.0844  0.3394  1.0000  -2.1190   0.0000   0.0000   0.0000   0.3173
   6.500   270000   1.1249   0.01303   0.00651  -0.0845  0.3333  1.0000  -2.1208   0.0000   0.0000   0.0000   0.3174
   6.500   280000   1.1247   0.01293   0.00638  -0.0845  0.3261  1.0000  -2.1216   0.0000   0.0000   0.0000   0.3174
   6.500   290000   1.1241   0.01286   0.00628  -0.0845  0.3176  1.0000  -2.1215   0.0000   0.0000   0.0000   0.3174
   6.500   300000   1.1240   0.01279   0.00621  -0.0845  0.3089  1.0000  -2.1219   0.0000   0.0000   0.0000   0.3174


